<?xml version="1.0" encoding="UTF-8"?>

<!-- generated on 2023-10-18 17:18:26 by Eclipse SUMO netedit Version 1.18.0
<configuration xmlns:xsi="http://www.w3.org/2001/XMLSchema-instance" xsi:noNamespaceSchemaLocation="http://sumo.dlr.de/xsd/neteditConfiguration.xsd">

    <input>
        <sumocfg-file value="C:\Users\ldvic\Sumo\autobahn\autobahn.sumocfg"/>
        <route-files value="C:\Users\ldvic\Sumo\autobahn\autobahn.rou.xml"/>
        <sumo-net-file value="C:\Users\ldvic\Sumo\autobahn\autobahn.net.xml"/>
    </input>

    <output>
        <output-file value="C:\Users\ldvic\Sumo\autobahn\autobahn.net.xml"/>
    </output>

    <processing>
        <offset.disable-normalization value="true"/>
    </processing>

    <junctions>
        <no-turnarounds value="true"/>
    </junctions>

    <netedit>
        <new-network value="false"/>
    </netedit>

</configuration>
-->

<net version="1.16" junctionCornerDetail="5" limitTurnSpeed="5.50" xmlns:xsi="http://www.w3.org/2001/XMLSchema-instance" xsi:noNamespaceSchemaLocation="http://sumo.dlr.de/xsd/net_file.xsd">

    <location netOffset="0.00,0.00" convBoundary="-31.43,61.03,135.43,61.03" origBoundary="10000000000.00,10000000000.00,-10000000000.00,-10000000000.00" projParameter="!"/>

    <edge id=":J2_0" function="internal">
        <lane id=":J2_0_0" index="0" speed="36.11" length="0.10" shape="18.44,56.23 18.44,56.23"/>
        <lane id=":J2_0_1" index="1" speed="36.11" length="0.10" shape="18.44,59.43 18.44,59.43"/>
    </edge>
    <edge id=":J3_0" function="internal">
        <lane id=":J3_0_0" index="0" speed="36.11" length="0.10" shape="90.38,56.23 90.38,56.23"/>
        <lane id=":J3_0_1" index="1" speed="36.11" length="0.10" shape="90.38,59.43 90.38,59.43"/>
    </edge>

    <edge id="entrada" from="J1" to="J2" priority="-1">
        <lane id="entrada_0" index="0" speed="36.11" length="49.87" shape="-31.43,56.23 18.44,56.23"/>
        <lane id="entrada_1" index="1" speed="36.11" length="49.87" shape="-31.43,59.43 18.44,59.43"/>
    </edge>
    <edge id="longEdge" from="J2" to="J3" priority="-1">
        <lane id="longEdge_0" index="0" speed="36.11" length="71.94" shape="18.44,56.23 90.38,56.23"/>
        <lane id="longEdge_1" index="1" speed="36.11" length="71.94" shape="18.44,59.43 90.38,59.43"/>
    </edge>
    <edge id="saida" from="J3" to="J4" priority="-1">
        <lane id="saida_0" index="0" speed="36.11" length="45.05" shape="90.38,56.23 135.43,56.23"/>
        <lane id="saida_1" index="1" speed="36.11" length="45.05" shape="90.38,59.43 135.43,59.43"/>
    </edge>

    <junction id="J1" type="dead_end" x="-31.43" y="61.03" incLanes="" intLanes="" shape="-31.43,61.03 -31.43,54.63"/>
    <junction id="J2" type="priority" x="18.44" y="61.03" incLanes="entrada_0 entrada_1" intLanes=":J2_0_0 :J2_0_1" shape="18.44,61.03 18.44,54.63 18.44,61.03">
        <request index="0" response="00" foes="00" cont="0"/>
        <request index="1" response="00" foes="00" cont="0"/>
    </junction>
    <junction id="J3" type="priority" x="90.38" y="61.03" incLanes="longEdge_0 longEdge_1" intLanes=":J3_0_0 :J3_0_1" shape="90.38,61.03 90.38,54.63 90.38,61.03">
        <request index="0" response="00" foes="00" cont="0"/>
        <request index="1" response="00" foes="00" cont="0"/>
    </junction>
    <junction id="J4" type="dead_end" x="135.43" y="61.03" incLanes="saida_0 saida_1" intLanes="" shape="135.43,54.63 135.43,61.03"/>

    <connection from="entrada" to="longEdge" fromLane="0" toLane="0" via=":J2_0_0" dir="s" state="M"/>
    <connection from="entrada" to="longEdge" fromLane="1" toLane="1" via=":J2_0_1" dir="s" state="M"/>
    <connection from="longEdge" to="saida" fromLane="0" toLane="0" via=":J3_0_0" dir="s" state="M"/>
    <connection from="longEdge" to="saida" fromLane="1" toLane="1" via=":J3_0_1" dir="s" state="M"/>

    <connection from=":J2_0" to="longEdge" fromLane="0" toLane="0" dir="s" state="M"/>
    <connection from=":J2_0" to="longEdge" fromLane="1" toLane="1" dir="s" state="M"/>
    <connection from=":J3_0" to="saida" fromLane="0" toLane="0" dir="s" state="M"/>
    <connection from=":J3_0" to="saida" fromLane="1" toLane="1" dir="s" state="M"/>

</net>
