<?xml version="1.0" encoding="UTF-8"?>

<!-- generated on 2023-10-17 18:14:52 by Eclipse SUMO netedit Version 1.18.0
-->

<routes xmlns:xsi="http://www.w3.org/2001/XMLSchema-instance" xsi:noNamespaceSchemaLocation="http://sumo.dlr.de/xsd/routes_file.xsd">
    <!-- Routes -->
    <route id="r_0" edges="estrada1 estrada2"/>
    <!-- Vehicles, persons and containers (sorted by depart) -->
    <vehicle id="v_0" depart="0.00" route="r_0"/>
    <vehicle id="v_1" depart="0.00" route="r_0"/>
    <vehicle id="v_10" depart="0.00" route="r_0"/>
    <vehicle id="v_11" depart="0.00" route="r_0"/>
    <vehicle id="v_12" depart="0.00" route="r_0"/>
    <vehicle id="v_13" depart="0.00" route="r_0"/>
    <vehicle id="v_14" depart="0.00" route="r_0"/>
    <vehicle id="v_15" depart="0.00" route="r_0"/>
    <vehicle id="v_16" depart="0.00" route="r_0"/>
    <vehicle id="v_17" depart="0.00" route="r_0"/>
    <vehicle id="v_18" depart="0.00" route="r_0"/>
    <vehicle id="v_19" depart="0.00" route="r_0"/>
    <vehicle id="v_2" depart="0.00" route="r_0"/>
    <vehicle id="v_20" depart="0.00" route="r_0"/>
    <vehicle id="v_3" depart="0.00" route="r_0"/>
    <vehicle id="v_4" depart="0.00" route="r_0"/>
    <vehicle id="v_5" depart="0.00" route="r_0"/>
    <vehicle id="v_6" depart="0.00" route="r_0"/>
    <vehicle id="v_7" depart="0.00" route="r_0"/>
    <vehicle id="v_8" depart="0.00" route="r_0"/>
    <vehicle id="v_9" depart="0.00" route="r_0"/>
</routes>
