<?xml version="1.0" encoding="UTF-8"?>

<!-- generated on 2023-10-17 18:14:55 by Eclipse SUMO netedit Version 1.18.0
<configuration xmlns:xsi="http://www.w3.org/2001/XMLSchema-instance" xsi:noNamespaceSchemaLocation="http://sumo.dlr.de/xsd/neteditConfiguration.xsd">

    <input>
        <sumocfg-file value="C:\Users\ldvic\OneDrive\Documents\UFCG\Doutorado\V2XTrustProject\helloWorld.sumocfg"/>
        <route-files value="C:\Users\ldvic\OneDrive\Documents\UFCG\Doutorado\V2XTrustProject\helloWorld.rou.xml"/>
        <sumo-net-file value="C:\Users\ldvic\OneDrive\Documents\UFCG\Doutorado\V2XTrustProject\helloWorld.net.xml"/>
    </input>

    <output>
        <output-file value="C:\Users\ldvic\OneDrive\Documents\UFCG\Doutorado\V2XTrustProject\helloWorld.net.xml"/>
    </output>

    <processing>
        <offset.disable-normalization value="true"/>
    </processing>

    <junctions>
        <no-turnarounds value="true"/>
    </junctions>

    <netedit>
        <new-network value="false"/>
    </netedit>

</configuration>
-->

<net version="1.16" junctionCornerDetail="5" limitTurnSpeed="5.50" xmlns:xsi="http://www.w3.org/2001/XMLSchema-instance" xsi:noNamespaceSchemaLocation="http://sumo.dlr.de/xsd/net_file.xsd">

    <location netOffset="0.00,0.00" convBoundary="-100.00,50.00,100.00,50.00" origBoundary="10000000000.00,10000000000.00,-10000000000.00,-10000000000.00" projParameter="!"/>

    <edge id=":no2_0" function="internal">
        <lane id=":no2_0_0" index="0" speed="13.89" length="0.10" shape="0.00,48.40 0.00,48.40"/>
    </edge>

    <edge id="estrada1" from="no1" to="no2" priority="-1">
        <lane id="estrada1_0" index="0" speed="13.89" length="100.00" shape="-100.00,48.40 0.00,48.40"/>
    </edge>
    <edge id="estrada2" from="no2" to="J2" priority="-1">
        <lane id="estrada2_0" index="0" speed="13.89" length="100.00" shape="0.00,48.40 100.00,48.40"/>
    </edge>

    <junction id="J2" type="dead_end" x="100.00" y="50.00" incLanes="estrada2_0" intLanes="" shape="100.00,46.80 100.00,50.00"/>
    <junction id="no1" type="dead_end" x="-100.00" y="50.00" incLanes="" intLanes="" shape="-100.00,50.00 -100.00,46.80"/>
    <junction id="no2" type="priority" x="0.00" y="50.00" incLanes="estrada1_0" intLanes=":no2_0_0" shape="0.00,50.00 0.00,46.80 0.00,50.00">
        <request index="0" response="0" foes="0" cont="0"/>
    </junction>

    <connection from="estrada1" to="estrada2" fromLane="0" toLane="0" via=":no2_0_0" dir="s" state="M"/>

    <connection from=":no2_0" to="estrada2" fromLane="0" toLane="0" dir="s" state="M"/>

</net>
