<?xml version="1.0" encoding="UTF-8"?>

<!-- generated on 2023-10-18 11:25:34.761859 by osmWebWizard.py v1_18_0+0000-03ecfdea036
<configuration>
    <net-file value="C:\Users\ldvic\Sumo\2023-10-18-11-24-58\osm.net.xml.gz"/>
    <output-trip-file value="C:\Users\ldvic\Sumo\2023-10-18-11-24-58\osm.truck.trips.xml"/>
    <route-file value="C:\Users\ldvic\Sumo\2023-10-18-11-24-58\osm.truck.rou.xml"/>
    <prefix value="truck"/>
    <trip-attributes value="departLane=&quot;best&quot;"/>
    <fringe-start-attributes value="departSpeed=&quot;max&quot;"/>
    <vehicle-class value="truck"/>
    <fringe-factor value="5"/>
    <vclass value="truck"/>
    <via-edge-types value="highway.motorway,highway.motorway_link,highway.trunk_link,highway.primary_link,highway.secondary_link,highway.tertiary_link"/>
    <min-distance value="600.0"/>
    <min-distance.fringe value="10.0"/>
    <remove-loops value="True"/>
    <validate value="True"/>
    <insertion-density value="3.0"/>
</configuration>
-->

<!-- generated on 2023-10-18 11:25:34 by Eclipse SUMO duarouter Version 1.18.0
<configuration xmlns:xsi="http://www.w3.org/2001/XMLSchema-instance" xsi:noNamespaceSchemaLocation="http://sumo.dlr.de/xsd/duarouterConfiguration.xsd">

    <input>
        <net-file value="C:\Users\ldvic\Sumo\2023-10-18-11-24-58\osm.net.xml.gz"/>
        <route-files value="C:\Users\ldvic\Sumo\2023-10-18-11-24-58\osm.truck.trips.xml"/>
    </input>

    <output>
        <output-file value="C:\Users\ldvic\Sumo\2023-10-18-11-24-58\osm.truck.trips.xml.tmp"/>
        <alternatives-output value="NUL"/>
        <write-trips value="true"/>
    </output>

    <processing>
        <remove-loops value="true"/>
    </processing>

    <time>
        <begin value="0.0"/>
        <end value="3600.0"/>
    </time>

    <report>
        <no-warnings value="true"/>
        <ignore-errors value="true"/>
        <no-step-log value="true"/>
    </report>

</configuration>
-->

<routes xmlns:xsi="http://www.w3.org/2001/XMLSchema-instance" xsi:noNamespaceSchemaLocation="http://sumo.dlr.de/xsd/routes_file.xsd">
    <vType id="truck_truck" vClass="truck"/>
    <trip id="truck0" type="truck_truck" depart="0.00" departLane="best" from="222781993#7" to="127260768#1"/>
    <trip id="truck1" type="truck_truck" depart="3.83" departLane="best" departSpeed="max" from="-382593798#2" to="255550495#0"/>
    <trip id="truck2" type="truck_truck" depart="7.66" departLane="best" from="324563670#5" to="261594250"/>
    <trip id="truck3" type="truck_truck" depart="11.48" departLane="best" from="590293722#1" to="174445828#1"/>
    <trip id="truck4" type="truck_truck" depart="15.31" departLane="best" from="-255132341#3" to="174445876#3"/>
    <trip id="truck5" type="truck_truck" depart="19.14" departLane="best" from="127260768#2" to="-249138215#0"/>
    <trip id="truck6" type="truck_truck" depart="22.97" departLane="best" departSpeed="max" from="222788402#0" to="197039303#1"/>
    <trip id="truck7" type="truck_truck" depart="26.80" departLane="best" from="-255550495#0" to="222779512#2"/>
    <trip id="truck8" type="truck_truck" depart="30.62" departLane="best" from="-328967726#3" to="-127250999#0"/>
    <trip id="truck9" type="truck_truck" depart="34.45" departLane="best" departSpeed="max" from="328967722#0" to="29472980#9"/>
    <trip id="truck10" type="truck_truck" depart="38.28" departLane="best" from="-701916400#0" to="-222779487"/>
    <trip id="truck11" type="truck_truck" depart="42.11" departLane="best" from="709068118" to="-709064443#0"/>
    <trip id="truck12" type="truck_truck" depart="45.94" departLane="best" departSpeed="max" from="-174445830#2" to="-174445854#6"/>
    <trip id="truck13" type="truck_truck" depart="49.77" departLane="best" departSpeed="max" from="453764994#0" to="-222780950#1"/>
    <trip id="truck14" type="truck_truck" depart="53.59" departLane="best" from="328967722#5" to="324568820#4"/>
    <trip id="truck15" type="truck_truck" depart="57.42" departLane="best" from="174445918#1" to="709495800"/>
    <trip id="truck16" type="truck_truck" depart="61.25" departLane="best" departSpeed="max" from="-968733572" to="217182195"/>
    <trip id="truck17" type="truck_truck" depart="65.08" departLane="best" from="-382593816" to="553774933#1"/>
    <trip id="truck18" type="truck_truck" depart="68.91" departLane="best" from="492148661#3" to="222779491#1"/>
    <trip id="truck20" type="truck_truck" depart="76.56" departLane="best" departSpeed="max" from="-324563557" to="-453764994#0"/>
    <trip id="truck21" type="truck_truck" depart="80.39" departLane="best" from="-174445744" to="324563670#1"/>
    <trip id="truck22" type="truck_truck" depart="84.22" departLane="best" from="-174445854#2" to="-385066018#0"/>
    <trip id="truck23" type="truck_truck" depart="88.05" departLane="best" from="222780954#1" to="114212829#4"/>
    <trip id="truck24" type="truck_truck" depart="91.87" departLane="best" from="-754146294" to="-249138223#0"/>
    <trip id="truck25" type="truck_truck" depart="95.70" departLane="best" from="-328967726#1" to="696086935#1"/>
    <trip id="truck26" type="truck_truck" depart="99.53" departLane="best" from="222788372#3" to="222781422"/>
    <trip id="truck27" type="truck_truck" depart="103.36" departLane="best" from="-222779526#1" to="-324568820#2"/>
    <trip id="truck28" type="truck_truck" depart="107.19" departLane="best" from="-222779504#4" to="127260286#3"/>
    <trip id="truck29" type="truck_truck" depart="111.02" departLane="best" from="845878060#0" to="244114183#4"/>
    <trip id="truck30" type="truck_truck" depart="114.84" departLane="best" from="197039285" to="29472963#2"/>
    <trip id="truck31" type="truck_truck" depart="118.67" departLane="best" from="453764983#2" to="325260099"/>
    <trip id="truck32" type="truck_truck" depart="122.50" departLane="best" departSpeed="max" from="-653381592#1" to="328967929#5"/>
    <trip id="truck33" type="truck_truck" depart="126.33" departLane="best" departSpeed="max" from="-249138241#1" to="701916400#6"/>
    <trip id="truck34" type="truck_truck" depart="130.16" departLane="best" departSpeed="max" from="54638938" to="-677321835#1"/>
    <trip id="truck35" type="truck_truck" depart="133.98" departLane="best" from="243985619#1" to="127260766#8"/>
    <trip id="truck36" type="truck_truck" depart="137.81" departLane="best" from="328967722#3" to="-324821989#0"/>
    <trip id="truck37" type="truck_truck" depart="141.64" departLane="best" from="197039302#0" to="-328967722#0"/>
    <trip id="truck38" type="truck_truck" depart="145.47" departLane="best" from="222779450#4" to="669585702#4"/>
    <trip id="truck39" type="truck_truck" depart="149.30" departLane="best" from="-127260287#4" to="-255128210#1"/>
    <trip id="truck40" type="truck_truck" depart="153.12" departLane="best" departSpeed="max" from="966641294" to="174445892#1"/>
    <trip id="truck41" type="truck_truck" depart="156.95" departLane="best" from="174445828#1" to="-127262264#0"/>
    <trip id="truck42" type="truck_truck" depart="160.78" departLane="best" from="-174445878#3" to="222788393#2"/>
    <trip id="truck43" type="truck_truck" depart="164.61" departLane="best" from="327250900#0" to="127262264#10"/>
    <trip id="truck44" type="truck_truck" depart="168.44" departLane="best" departSpeed="max" from="-129539581#3" to="127260287#10"/>
    <trip id="truck45" type="truck_truck" depart="172.26" departLane="best" departSpeed="max" from="966344492" to="-197029390#5"/>
    <trip id="truck46" type="truck_truck" depart="176.09" departLane="best" departSpeed="max" from="709495804" to="544799375#2"/>
    <trip id="truck47" type="truck_truck" depart="179.92" departLane="best" from="127260286#1" to="324563670#8"/>
    <trip id="truck48" type="truck_truck" depart="183.75" departLane="best" from="249138234#1" to="-197032691#0"/>
    <trip id="truck49" type="truck_truck" depart="187.58" departLane="best" from="-328967726#0" to="244114183#8"/>
    <trip id="truck50" type="truck_truck" depart="191.41" departLane="best" from="-174445882#3" to="129539561#4"/>
    <trip id="truck51" type="truck_truck" depart="195.23" departLane="best" from="129539568#0" to="709068121"/>
    <trip id="truck52" type="truck_truck" depart="199.06" departLane="best" departSpeed="max" from="54638938" to="-328967722#1"/>
    <trip id="truck53" type="truck_truck" depart="202.89" departLane="best" from="174445820#1" to="-222780951#2"/>
    <trip id="truck54" type="truck_truck" depart="206.72" departLane="best" from="695796378#0" to="567039114"/>
    <trip id="truck55" type="truck_truck" depart="210.55" departLane="best" from="-488880622#1" to="244114183#1"/>
    <trip id="truck56" type="truck_truck" depart="214.37" departLane="best" from="222779510#2" to="-222779478#0"/>
    <trip id="truck57" type="truck_truck" depart="218.20" departLane="best" from="324821462#0" to="197039285"/>
    <trip id="truck58" type="truck_truck" depart="222.03" departLane="best" from="325055684#1" to="-197029391#0"/>
    <trip id="truck59" type="truck_truck" depart="225.86" departLane="best" from="-1086804301" to="695860519#2"/>
    <trip id="truck60" type="truck_truck" depart="229.69" departLane="best" from="-127260292#2" to="695891486#3"/>
    <trip id="truck61" type="truck_truck" depart="233.51" departLane="best" from="550870778#3" to="-453764984"/>
    <trip id="truck62" type="truck_truck" depart="237.34" departLane="best" from="-528462450" to="129539554#1"/>
    <trip id="truck63" type="truck_truck" depart="241.17" departLane="best" from="-174445769" to="-174445827#1"/>
    <trip id="truck64" type="truck_truck" depart="245.00" departLane="best" departSpeed="max" from="-174445680#5" to="325053879#1"/>
    <trip id="truck66" type="truck_truck" depart="252.66" departLane="best" from="-174445688#0" to="216865710#1"/>
    <trip id="truck67" type="truck_truck" depart="256.48" departLane="best" from="328967722#3" to="572721304"/>
    <trip id="truck68" type="truck_truck" depart="260.31" departLane="best" from="127260776#4" to="-249138225#5"/>
    <trip id="truck69" type="truck_truck" depart="264.14" departLane="best" from="-174445933#3" to="324601618#0"/>
    <trip id="truck70" type="truck_truck" depart="267.97" departLane="best" from="249138221#7" to="667031134#0"/>
    <trip id="truck71" type="truck_truck" depart="271.80" departLane="best" from="944528097#2" to="-249138225#1"/>
    <trip id="truck72" type="truck_truck" depart="275.62" departLane="best" from="-174445918#3" to="-324561113#1"/>
    <trip id="truck73" type="truck_truck" depart="279.45" departLane="best" from="-695891487" to="222779512#1"/>
    <trip id="truck74" type="truck_truck" depart="283.28" departLane="best" departSpeed="max" from="-324563560" to="-255128210#5"/>
    <trip id="truck75" type="truck_truck" depart="287.11" departLane="best" from="-174445682#6" to="223141043#3"/>
    <trip id="truck76" type="truck_truck" depart="290.94" departLane="best" departSpeed="max" from="-324563560" to="695793535#0"/>
    <trip id="truck77" type="truck_truck" depart="294.76" departLane="best" departSpeed="max" from="492148661#0" to="174445688#1"/>
    <trip id="truck78" type="truck_truck" depart="298.59" departLane="best" from="-324566260" to="255550488#1"/>
    <trip id="truck79" type="truck_truck" depart="302.42" departLane="best" from="-249138244#7" to="-197032693#0"/>
    <trip id="truck80" type="truck_truck" depart="306.25" departLane="best" from="695891799#1" to="222779468#1"/>
    <trip id="truck81" type="truck_truck" depart="310.08" departLane="best" departSpeed="max" from="174445683" to="327297918#0"/>
    <trip id="truck82" type="truck_truck" depart="313.90" departLane="best" from="-174445850#2" to="129539554#3"/>
    <trip id="truck83" type="truck_truck" depart="317.73" departLane="best" from="127260776#6" to="174445718#13"/>
    <trip id="truck84" type="truck_truck" depart="321.56" departLane="best" from="-324561468#1" to="255550492#0"/>
    <trip id="truck85" type="truck_truck" depart="325.39" departLane="best" from="775979532#0" to="174445869#2"/>
    <trip id="truck86" type="truck_truck" depart="329.22" departLane="best" from="-127260289#7" to="-709073435"/>
    <trip id="truck87" type="truck_truck" depart="333.05" departLane="best" from="492148661#3" to="-324822008#7"/>
    <trip id="truck88" type="truck_truck" depart="336.87" departLane="best" from="222788372#4" to="-129539593#10"/>
    <trip id="truck89" type="truck_truck" depart="340.70" departLane="best" from="127260776#0" to="-385066018#2"/>
    <trip id="truck90" type="truck_truck" depart="344.53" departLane="best" from="-324822008#5" to="695886637#5"/>
    <trip id="truck91" type="truck_truck" depart="348.36" departLane="best" departSpeed="max" from="127262269#0" to="544799375#4"/>
    <trip id="truck92" type="truck_truck" depart="352.19" departLane="best" departSpeed="max" from="197029398#0" to="-127262265#0"/>
    <trip id="truck93" type="truck_truck" depart="356.01" departLane="best" from="967678852" to="-453764994#2"/>
    <trip id="truck94" type="truck_truck" depart="359.84" departLane="best" from="709291784" to="695887357#1"/>
    <trip id="truck95" type="truck_truck" depart="363.67" departLane="best" from="453764994#2" to="-222779525#0"/>
    <trip id="truck96" type="truck_truck" depart="367.50" departLane="best" departSpeed="max" from="-174445744" to="-249138234#3"/>
    <trip id="truck97" type="truck_truck" depart="371.33" departLane="best" from="-127260289#1" to="-129539554#3"/>
    <trip id="truck98" type="truck_truck" depart="375.15" departLane="best" from="1086438228#1" to="775979531"/>
    <trip id="truck99" type="truck_truck" depart="378.98" departLane="best" from="328967722#5" to="327297889"/>
    <trip id="truck100" type="truck_truck" depart="382.81" departLane="best" from="129539577#0" to="127262264#2"/>
    <trip id="truck101" type="truck_truck" depart="386.64" departLane="best" from="709068118" to="941226956"/>
    <trip id="truck102" type="truck_truck" depart="390.47" departLane="best" departSpeed="max" from="-222779453#3" to="488910592#0"/>
    <trip id="truck103" type="truck_truck" depart="394.30" departLane="best" from="709291783#1" to="222779492#2"/>
    <trip id="truck104" type="truck_truck" depart="398.12" departLane="best" from="197029375" to="324821462#1"/>
    <trip id="truck105" type="truck_truck" depart="401.95" departLane="best" from="127262271#6" to="222779504#3"/>
    <trip id="truck106" type="truck_truck" depart="405.78" departLane="best" departSpeed="max" from="174445828#0" to="488931616#0"/>
    <trip id="truck107" type="truck_truck" depart="409.61" departLane="best" from="-222779468#2" to="709073440"/>
    <trip id="truck108" type="truck_truck" depart="413.44" departLane="best" from="-174445748" to="-222788316#0"/>
    <trip id="truck109" type="truck_truck" depart="417.26" departLane="best" from="222779483#2" to="255550494#2"/>
    <trip id="truck110" type="truck_truck" depart="421.09" departLane="best" from="586645022#0" to="-324821988"/>
    <trip id="truck111" type="truck_truck" depart="424.92" departLane="best" from="222779483#1" to="222788307"/>
    <trip id="truck112" type="truck_truck" depart="428.75" departLane="best" from="127260773#5" to="222779504#1"/>
    <trip id="truck113" type="truck_truck" depart="432.58" departLane="best" from="-174445882#2" to="695915942#4"/>
    <trip id="truck114" type="truck_truck" depart="436.40" departLane="best" from="-249138225#4" to="324563638#0"/>
    <trip id="truck115" type="truck_truck" depart="440.23" departLane="best" from="249138217#3" to="488931620"/>
    <trip id="truck116" type="truck_truck" depart="444.06" departLane="best" from="-667031134#1" to="324822098#2"/>
    <trip id="truck117" type="truck_truck" depart="447.89" departLane="best" departSpeed="max" from="966641294" to="944528097#0"/>
    <trip id="truck118" type="truck_truck" depart="451.72" departLane="best" from="328967722#5" to="695915942#11"/>
    <trip id="truck119" type="truck_truck" depart="455.54" departLane="best" from="556490926#1" to="586645583#1"/>
    <trip id="truck120" type="truck_truck" depart="459.37" departLane="best" from="-754144919#0" to="222779492#1"/>
    <trip id="truck121" type="truck_truck" depart="463.20" departLane="best" from="426144065#1" to="29473042#5"/>
    <trip id="truck122" type="truck_truck" depart="467.03" departLane="best" from="222779513#0" to="776674802#3"/>
    <trip id="truck123" type="truck_truck" depart="470.86" departLane="best" from="223141043#3" to="-127260284#0"/>
    <trip id="truck124" type="truck_truck" depart="474.69" departLane="best" from="567039111#1" to="-488931619#0"/>
    <trip id="truck125" type="truck_truck" depart="478.51" departLane="best" from="244114183#6" to="696086951"/>
    <trip id="truck126" type="truck_truck" depart="482.34" departLane="best" departSpeed="max" from="-197032690#1" to="-174445918#2"/>
    <trip id="truck127" type="truck_truck" depart="486.17" departLane="best" from="-174445874#4" to="217182198#4"/>
    <trip id="truck128" type="truck_truck" depart="490.00" departLane="best" from="328968084#5" to="-222780954#0"/>
    <trip id="truck129" type="truck_truck" depart="493.83" departLane="best" from="29472980#9" to="-249138217#1"/>
    <trip id="truck130" type="truck_truck" depart="497.65" departLane="best" from="222780951#4" to="-328967722#5"/>
    <trip id="truck131" type="truck_truck" depart="501.48" departLane="best" from="174445756" to="695793535#0"/>
    <trip id="truck132" type="truck_truck" depart="505.31" departLane="best" from="453764988#1" to="174445850#5"/>
    <trip id="truck133" type="truck_truck" depart="509.14" departLane="best" from="127260776#5" to="-382593814#4"/>
    <trip id="truck134" type="truck_truck" depart="512.97" departLane="best" departSpeed="max" from="-1180485070" to="325258968#2"/>
    <trip id="truck135" type="truck_truck" depart="516.79" departLane="best" from="323859648#2" to="-328967722#0"/>
    <trip id="truck136" type="truck_truck" depart="520.62" departLane="best" from="324568547#2" to="216870245#3"/>
    <trip id="truck137" type="truck_truck" depart="524.45" departLane="best" from="-174445688#3" to="590293727#2"/>
    <trip id="truck138" type="truck_truck" depart="528.28" departLane="best" from="666648560#0" to="-197039304#2"/>
    <trip id="truck139" type="truck_truck" depart="532.11" departLane="best" from="-426144067#1" to="222779500#2"/>
    <trip id="truck141" type="truck_truck" depart="539.76" departLane="best" from="544809079#1" to="677321833#0"/>
    <trip id="truck142" type="truck_truck" depart="543.59" departLane="best" from="1148722877#2" to="249138223#2"/>
    <trip id="truck143" type="truck_truck" depart="547.42" departLane="best" from="-324822008#4" to="174445878#2"/>
    <trip id="truck144" type="truck_truck" depart="551.25" departLane="best" from="127260294#0" to="222788336#1"/>
    <trip id="truck145" type="truck_truck" depart="555.08" departLane="best" from="-222779453#2" to="695891486#3"/>
    <trip id="truck146" type="truck_truck" depart="558.90" departLane="best" from="505169870" to="944528097#2"/>
    <trip id="truck147" type="truck_truck" depart="562.73" departLane="best" from="328967929#0" to="695860518#0"/>
    <trip id="truck148" type="truck_truck" depart="566.56" departLane="best" from="127260294#6" to="324604844#2"/>
    <trip id="truck149" type="truck_truck" depart="570.39" departLane="best" from="327300639#7" to="54638900#3"/>
    <trip id="truck150" type="truck_truck" depart="574.22" departLane="best" from="325260098#3" to="-174445894#4"/>
    <trip id="truck151" type="truck_truck" depart="578.04" departLane="best" departSpeed="max" from="54638900#0" to="530332320#0"/>
    <trip id="truck152" type="truck_truck" depart="581.87" departLane="best" departSpeed="max" from="-29472960#1" to="382593816"/>
    <trip id="truck153" type="truck_truck" depart="585.70" departLane="best" from="129539583#1" to="-572721305#1"/>
    <trip id="truck154" type="truck_truck" depart="589.53" departLane="best" from="327294918" to="-324563335#1"/>
    <trip id="truck155" type="truck_truck" depart="593.36" departLane="best" departSpeed="max" from="-695851448#1" to="54638900#4"/>
    <trip id="truck156" type="truck_truck" depart="597.18" departLane="best" from="709252393#6" to="-385066018#4"/>
    <trip id="truck157" type="truck_truck" depart="601.01" departLane="best" from="-222781991#0" to="127260771#1"/>
    <trip id="truck158" type="truck_truck" depart="604.84" departLane="best" departSpeed="max" from="754449793" to="197032690#1"/>
    <trip id="truck159" type="truck_truck" depart="608.67" departLane="best" departSpeed="max" from="695915942#0" to="-174445918#2"/>
    <trip id="truck160" type="truck_truck" depart="612.50" departLane="best" departSpeed="max" from="709073443#0" to="-328967726#0"/>
    <trip id="truck161" type="truck_truck" depart="616.33" departLane="best" departSpeed="max" from="324561468#0" to="-677321833#3"/>
    <trip id="truck162" type="truck_truck" depart="620.15" departLane="best" from="-222779504#4" to="174445894#4"/>
    <trip id="truck163" type="truck_truck" depart="623.98" departLane="best" from="1180483791" to="222779489#0"/>
    <trip id="truck164" type="truck_truck" depart="627.81" departLane="best" from="-325055454#5" to="324561468#3"/>
    <trip id="truck165" type="truck_truck" depart="631.64" departLane="best" departSpeed="max" from="-1180485069" to="-695886639#1"/>
    <trip id="truck166" type="truck_truck" depart="635.47" departLane="best" from="-174445933#0" to="324563670#3"/>
    <trip id="truck167" type="truck_truck" depart="639.29" departLane="best" from="197032691#4" to="255550489#0"/>
    <trip id="truck168" type="truck_truck" depart="643.12" departLane="best" departSpeed="max" from="-709495809" to="-174445685#5"/>
    <trip id="truck169" type="truck_truck" depart="646.95" departLane="best" departSpeed="max" from="249138211" to="-701916396"/>
    <trip id="truck170" type="truck_truck" depart="650.78" departLane="best" from="-653381592#0" to="488910605"/>
    <trip id="truck171" type="truck_truck" depart="654.61" departLane="best" from="29473041#1" to="521674645"/>
    <trip id="truck172" type="truck_truck" depart="658.43" departLane="best" from="550870778#2" to="127260778#4"/>
    <trip id="truck173" type="truck_truck" depart="662.26" departLane="best" from="127260289#6" to="-488880622#1"/>
    <trip id="truck174" type="truck_truck" depart="666.09" departLane="best" from="-197029390#1" to="-127262262#1"/>
    <trip id="truck175" type="truck_truck" depart="669.92" departLane="best" departSpeed="max" from="695915942#0" to="262579564#1"/>
    <trip id="truck176" type="truck_truck" depart="673.75" departLane="best" from="656372038" to="222781993#9"/>
    <trip id="truck177" type="truck_truck" depart="677.57" departLane="best" departSpeed="max" from="-488910605" to="-197041723#2"/>
    <trip id="truck178" type="truck_truck" depart="681.40" departLane="best" from="-1086804301" to="453764984"/>
    <trip id="truck179" type="truck_truck" depart="685.23" departLane="best" from="-127262252#2" to="222779492#2"/>
    <trip id="truck180" type="truck_truck" depart="689.06" departLane="best" from="243985618#1" to="174445718#10"/>
    <trip id="truck181" type="truck_truck" depart="692.89" departLane="best" from="127262265#1" to="-249138234#3"/>
    <trip id="truck182" type="truck_truck" depart="696.72" departLane="best" from="174445685#0" to="685885649"/>
    <trip id="truck183" type="truck_truck" depart="700.54" departLane="best" from="327297917" to="-222779526#3"/>
    <trip id="truck184" type="truck_truck" depart="704.37" departLane="best" departSpeed="max" from="-174445761#5" to="174445904#0"/>
    <trip id="truck185" type="truck_truck" depart="708.20" departLane="best" from="222780951#2" to="-704084683"/>
    <trip id="truck186" type="truck_truck" depart="712.03" departLane="best" from="361457789#2" to="324822008#7"/>
    <trip id="truck187" type="truck_truck" depart="715.86" departLane="best" departSpeed="max" from="249138221#0" to="-324561113#0"/>
    <trip id="truck188" type="truck_truck" depart="719.68" departLane="best" from="-249138218#1" to="127260294#9"/>
    <trip id="truck189" type="truck_truck" depart="723.51" departLane="best" departSpeed="max" from="-324601642" to="174445761#5"/>
    <trip id="truck190" type="truck_truck" depart="727.34" departLane="best" from="453764995#2" to="174445717#3"/>
    <trip id="truck191" type="truck_truck" depart="731.17" departLane="best" from="-127260768#6" to="-223141042#1"/>
    <trip id="truck192" type="truck_truck" depart="735.00" departLane="best" from="-223141042#0" to="29472980#3"/>
    <trip id="truck193" type="truck_truck" depart="738.82" departLane="best" departSpeed="max" from="174445778#0" to="-324602393#0"/>
    <trip id="truck194" type="truck_truck" depart="742.65" departLane="best" departSpeed="max" from="244112746#0" to="-127250997#4"/>
    <trip id="truck195" type="truck_truck" depart="746.48" departLane="best" from="324604844#1" to="325258853#1"/>
    <trip id="truck196" type="truck_truck" depart="750.31" departLane="best" from="-174445874#2" to="127262264#9"/>
    <trip id="truck197" type="truck_truck" depart="754.14" departLane="best" from="-222780952#2" to="709068124"/>
    <trip id="truck198" type="truck_truck" depart="757.97" departLane="best" from="-174445874#2" to="-127262265#0"/>
    <trip id="truck199" type="truck_truck" depart="761.79" departLane="best" from="324822008#3" to="488910605"/>
    <trip id="truck200" type="truck_truck" depart="765.62" departLane="best" from="327300638#0" to="-328968077#5"/>
    <trip id="truck201" type="truck_truck" depart="769.45" departLane="best" departSpeed="max" from="249138216#0" to="778446122"/>
    <trip id="truck202" type="truck_truck" depart="773.28" departLane="best" from="222779483#4" to="709064442"/>
    <trip id="truck203" type="truck_truck" depart="777.11" departLane="best" from="590293721" to="222781993#1"/>
    <trip id="truck204" type="truck_truck" depart="780.93" departLane="best" from="29473041#0" to="174445876#2"/>
    <trip id="truck205" type="truck_truck" depart="784.76" departLane="best" from="-385066018#2" to="-197041723#2"/>
    <trip id="truck206" type="truck_truck" depart="788.59" departLane="best" from="-618339630#0" to="324818804#6"/>
    <trip id="truck207" type="truck_truck" depart="792.42" departLane="best" from="174445685#5" to="-325259035"/>
    <trip id="truck208" type="truck_truck" depart="796.25" departLane="best" from="-324602393#1" to="244113489#1"/>
    <trip id="truck209" type="truck_truck" depart="800.07" departLane="best" from="-324822008#1" to="174445933#2"/>
    <trip id="truck210" type="truck_truck" depart="803.90" departLane="best" departSpeed="max" from="222780949#0" to="382593798#0"/>
    <trip id="truck211" type="truck_truck" depart="807.73" departLane="best" from="-174445717#5" to="-453764981#4"/>
    <trip id="truck212" type="truck_truck" depart="811.56" departLane="best" from="-328968084#3" to="695797813#0"/>
    <trip id="truck213" type="truck_truck" depart="815.39" departLane="best" from="195667653" to="-197039303#0"/>
    <trip id="truck214" type="truck_truck" depart="819.21" departLane="best" from="324563637#4" to="29472971#5"/>
    <trip id="truck215" type="truck_truck" depart="823.04" departLane="best" from="29472964#1" to="174445680#1"/>
    <trip id="truck216" type="truck_truck" depart="826.87" departLane="best" from="127260294#13" to="-197039295#1"/>
    <trip id="truck217" type="truck_truck" depart="830.70" departLane="best" from="-127260769#2" to="-249138221#2"/>
    <trip id="truck218" type="truck_truck" depart="834.53" departLane="best" from="127260774#0" to="695793534#0"/>
    <trip id="truck219" type="truck_truck" depart="838.36" departLane="best" from="222779450#2" to="29472980#13"/>
    <trip id="truck220" type="truck_truck" depart="842.18" departLane="best" from="488910598#1" to="325055557#2"/>
    <trip id="truck221" type="truck_truck" depart="846.01" departLane="best" from="114212671#0" to="-127250997#5"/>
    <trip id="truck222" type="truck_truck" depart="849.84" departLane="best" from="488880176" to="709068121"/>
    <trip id="truck223" type="truck_truck" depart="853.67" departLane="best" from="127260773#4" to="-324821158"/>
    <trip id="truck224" type="truck_truck" depart="857.50" departLane="best" from="197029390#8" to="-222780952#0"/>
    <trip id="truck225" type="truck_truck" depart="861.32" departLane="best" from="-255550495#0" to="-255128210#1"/>
    <trip id="truck226" type="truck_truck" depart="865.15" departLane="best" from="127262258#3" to="127260771#4"/>
    <trip id="truck227" type="truck_truck" depart="868.98" departLane="best" from="-695891486#0" to="29472953#1"/>
    <trip id="truck228" type="truck_truck" depart="872.81" departLane="best" from="127260292#3" to="-222779517#2"/>
    <trip id="truck230" type="truck_truck" depart="880.46" departLane="best" from="-222779528#2" to="-127260769#0"/>
    <trip id="truck231" type="truck_truck" depart="884.29" departLane="best" from="127260284#1" to="222779452#1"/>
    <trip id="truck232" type="truck_truck" depart="888.12" departLane="best" from="-127260768#4" to="249138215#2"/>
    <trip id="truck233" type="truck_truck" depart="891.95" departLane="best" from="197032691#0" to="174445688#5"/>
    <trip id="truck234" type="truck_truck" depart="895.78" departLane="best" departSpeed="max" from="-127262264#10" to="127260286#2"/>
    <trip id="truck235" type="truck_truck" depart="899.61" departLane="best" departSpeed="max" from="-249138241#1" to="695886638#0"/>
    <trip id="truck236" type="truck_truck" depart="903.43" departLane="best" from="324820417#0" to="127260286#2"/>
    <trip id="truck237" type="truck_truck" depart="907.26" departLane="best" from="324604845" to="-453764984"/>
    <trip id="truck238" type="truck_truck" depart="911.09" departLane="best" from="-325053879#1" to="-174445784#0"/>