<?xml version="1.0" encoding="UTF-8"?>

<!-- generated on 2023-10-18 11:25:29.069815 by osmWebWizard.py v1_18_0+0000-03ecfdea036
<configuration>
    <net-file value="C:\Users\ldvic\Sumo\2023-10-18-11-24-58\osm.net.xml.gz"/>
    <output-trip-file value="C:\Users\ldvic\Sumo\2023-10-18-11-24-58\osm.passenger.trips.xml"/>
    <route-file value="C:\Users\ldvic\Sumo\2023-10-18-11-24-58\osm.passenger.rou.xml"/>
    <prefix value="veh"/>
    <trip-attributes value="departLane=&quot;best&quot;"/>
    <fringe-start-attributes value="departSpeed=&quot;max&quot;"/>
    <vehicle-class value="passenger"/>
    <lanes value="True"/>
    <fringe-factor value="5"/>
    <allow-fringe.min-length value="1000.0"/>
    <via-edge-types value="highway.motorway,highway.motorway_link,highway.trunk_link,highway.primary_link,highway.secondary_link,highway.tertiary_link"/>
    <min-distance value="300.0"/>
    <min-distance.fringe value="10.0"/>
    <remove-loops value="True"/>
    <validate value="True"/>
    <insertion-density value="18.0"/>
</configuration>
-->

<!-- generated on 2023-10-18 11:25:25 by Eclipse SUMO duarouter Version 1.18.0
<configuration xmlns:xsi="http://www.w3.org/2001/XMLSchema-instance" xsi:noNamespaceSchemaLocation="http://sumo.dlr.de/xsd/duarouterConfiguration.xsd">

    <input>
        <net-file value="C:\Users\ldvic\Sumo\2023-10-18-11-24-58\osm.net.xml.gz"/>
        <route-files value="C:\Users\ldvic\Sumo\2023-10-18-11-24-58\osm.passenger.trips.xml"/>
    </input>

    <output>
        <output-file value="C:\Users\ldvic\Sumo\2023-10-18-11-24-58\osm.passenger.trips.xml.tmp"/>
        <alternatives-output value="NUL"/>
        <write-trips value="true"/>
    </output>

    <processing>
        <remove-loops value="true"/>
    </processing>

    <time>
        <begin value="0.0"/>
        <end value="3600.0"/>
    </time>

    <report>
        <no-warnings value="true"/>
        <ignore-errors value="true"/>
        <no-step-log value="true"/>
    </report>

</configuration>
-->

<routes xmlns:xsi="http://www.w3.org/2001/XMLSchema-instance" xsi:noNamespaceSchemaLocation="http://sumo.dlr.de/xsd/routes_file.xsd">
    <vType id="veh_passenger" vClass="passenger"/>
    <trip id="veh0" type="veh_passenger" depart="0.00" departLane="best" from="255132343#0" to="127260771#6"/>
    <trip id="veh1" type="veh_passenger" depart="0.64" departLane="best" departSpeed="max" from="-695789145" to="-328967722#1"/>
    <trip id="veh2" type="veh_passenger" depart="1.28" departLane="best" from="324822368#3" to="323859648#2"/>
    <trip id="veh3" type="veh_passenger" depart="1.91" departLane="best" from="656372048" to="-174445878#1"/>
    <trip id="veh4" type="veh_passenger" depart="2.55" departLane="best" from="174445685#2" to="-127260778#5"/>
    <trip id="veh5" type="veh_passenger" depart="3.19" departLane="best" departSpeed="max" from="-325055455" to="217182212#2"/>
    <trip id="veh6" type="veh_passenger" depart="3.83" departLane="best" from="-127260773#0" to="324564850"/>
    <trip id="veh7" type="veh_passenger" depart="4.47" departLane="best" from="255550494#0" to="222779523#1"/>
    <trip id="veh8" type="veh_passenger" depart="5.10" departLane="best" from="325055684#1" to="244113489#1"/>
    <trip id="veh9" type="veh_passenger" depart="5.74" departLane="best" from="-426144067#1" to="-127250999#0"/>
    <trip id="veh10" type="veh_passenger" depart="6.38" departLane="best" from="385066018#4" to="324568818#2"/>
    <trip id="veh11" type="veh_passenger" depart="7.02" departLane="best" from="127250997#5" to="-222781995#0"/>
    <trip id="veh12" type="veh_passenger" depart="7.66" departLane="best" from="-709073440" to="127260292#7"/>
    <trip id="veh13" type="veh_passenger" depart="8.29" departLane="best" from="-174445878#0" to="-174445912#3"/>
    <trip id="veh14" type="veh_passenger" depart="8.93" departLane="best" from="544799375#3" to="249138232#1"/>
    <trip id="veh15" type="veh_passenger" depart="9.57" departLane="best" from="426143698#2" to="324825482"/>
    <trip id="veh16" type="veh_passenger" depart="10.21" departLane="best" from="222779478#0" to="709495800"/>
    <trip id="veh17" type="veh_passenger" depart="10.85" departLane="best" from="127262253#9" to="222780949#1"/>
    <trip id="veh18" type="veh_passenger" depart="11.48" departLane="best" from="-488880622#1" to="255132343#1"/>
    <trip id="veh19" type="veh_passenger" depart="12.12" departLane="best" from="553774933#0" to="222788402#5"/>
    <trip id="veh20" type="veh_passenger" depart="12.76" departLane="best" from="324563670#6" to="-127262269#2"/>
    <trip id="veh21" type="veh_passenger" depart="13.40" departLane="best" from="-328967726#2" to="-709073435"/>
    <trip id="veh22" type="veh_passenger" depart="14.04" departLane="best" from="-174445841#1" to="-382593798#0"/>
    <trip id="veh23" type="veh_passenger" depart="14.67" departLane="best" from="-255128210#1" to="127262258#7"/>
    <trip id="veh24" type="veh_passenger" depart="15.31" departLane="best" from="-127260778#3" to="-324822008#1"/>
    <trip id="veh25" type="veh_passenger" depart="15.95" departLane="best" from="-586644844" to="696086950#0"/>
    <trip id="veh26" type="veh_passenger" depart="16.59" departLane="best" from="255550492#1" to="249138241#0"/>
    <trip id="veh27" type="veh_passenger" depart="17.23" departLane="best" from="249138221#5" to="324822368#4"/>
    <trip id="veh28" type="veh_passenger" depart="17.86" departLane="best" departSpeed="max" from="-222788393#2" to="129539563#1"/>
    <trip id="veh29" type="veh_passenger" depart="18.50" departLane="best" from="845878060#1" to="29472960#1"/>
    <trip id="veh30" type="veh_passenger" depart="19.14" departLane="best" from="222779511#2" to="324563557"/>
    <trip id="veh31" type="veh_passenger" depart="19.78" departLane="best" departSpeed="max" from="530332321#0" to="328967726#1"/>
    <trip id="veh32" type="veh_passenger" depart="20.42" departLane="best" from="328967929#3" to="-127262252#0"/>
    <trip id="veh33" type="veh_passenger" depart="21.05" departLane="best" from="-754144918" to="-677321833#3"/>
    <trip id="veh34" type="veh_passenger" depart="21.69" departLane="best" from="-324602394" to="-701916402"/>
    <trip id="veh35" type="veh_passenger" depart="22.33" departLane="best" from="586645022#0" to="114212829#5"/>
    <trip id="veh36" type="veh_passenger" depart="22.97" departLane="best" from="29472953#1" to="129539593#5"/>
    <trip id="veh37" type="veh_passenger" depart="23.61" departLane="best" from="695860515#6" to="174445894#3"/>
    <trip id="veh38" type="veh_passenger" depart="24.24" departLane="best" from="-550870778#3" to="-453764994#1"/>
    <trip id="veh39" type="veh_passenger" depart="24.88" departLane="best" from="222779517#0" to="-595926357"/>
    <trip id="veh40" type="veh_passenger" depart="25.52" departLane="best" from="222781993#3" to="695793534#1"/>
    <trip id="veh41" type="veh_passenger" depart="26.16" departLane="best" from="327300638#0" to="-325258853#1"/>
    <trip id="veh42" type="veh_passenger" depart="26.80" departLane="best" departSpeed="max" from="966641294" to="222779450#5"/>
    <trip id="veh43" type="veh_passenger" depart="27.43" departLane="best" from="-174445874#3" to="-127262271#0"/>
    <trip id="veh44" type="veh_passenger" depart="28.07" departLane="best" from="197029390#7" to="255550492#2"/>
    <trip id="veh45" type="veh_passenger" depart="28.71" departLane="best" from="567039111#1" to="-174445721#1"/>
    <trip id="veh46" type="veh_passenger" depart="29.35" departLane="best" from="-174445688#0" to="129539568#3"/>
    <trip id="veh47" type="veh_passenger" depart="29.99" departLane="best" departSpeed="max" from="966344492" to="222779500#1"/>
    <trip id="veh48" type="veh_passenger" depart="30.62" departLane="best" departSpeed="max" from="709495804" to="572721306#1"/>
    <trip id="veh49" type="veh_passenger" depart="31.26" departLane="best" from="-127260287#0" to="324820417#0"/>
    <trip id="veh50" type="veh_passenger" depart="31.90" departLane="best" from="29472980#8" to="222779513#1"/>
    <trip id="veh51" type="veh_passenger" depart="32.54" departLane="best" from="-572721306#2" to="29472963#0"/>
    <trip id="veh52" type="veh_passenger" depart="33.18" departLane="best" from="-197029396#3" to="174445820#1"/>
    <trip id="veh53" type="veh_passenger" depart="33.81" departLane="best" departSpeed="max" from="174445828#0" to="709068122#1"/>
    <trip id="veh54" type="veh_passenger" depart="34.45" departLane="best" from="586644843" to="-595926357"/>
    <trip id="veh55" type="veh_passenger" depart="35.09" departLane="best" from="-197032693#0" to="-249138225#1"/>
    <trip id="veh56" type="veh_passenger" depart="35.73" departLane="best" from="709064443#0" to="29472953#6"/>
    <trip id="veh57" type="veh_passenger" depart="36.37" departLane="best" from="244112749#0" to="222780952#3"/>
    <trip id="veh58" type="veh_passenger" depart="37.01" departLane="best" from="327250898#1" to="222779516#1"/>
    <trip id="veh59" type="veh_passenger" depart="37.64" departLane="best" from="328967711#0" to="222779504#1"/>
    <trip id="veh60" type="veh_passenger" depart="38.28" departLane="best" from="-1148722878" to="-1195869166#2"/>
    <trip id="veh61" type="veh_passenger" depart="38.92" departLane="best" from="127260294#12" to="695915941#5"/>
    <trip id="veh62" type="veh_passenger" depart="39.56" departLane="best" from="590293725#2" to="488931612"/>
    <trip id="veh63" type="veh_passenger" depart="40.20" departLane="best" departSpeed="max" from="-709073441" to="-174445684"/>
    <trip id="veh64" type="veh_passenger" depart="40.83" departLane="best" from="590293722#1" to="709064440"/>
    <trip id="veh65" type="veh_passenger" depart="41.47" departLane="best" from="-174445854#1" to="197039293#0"/>
    <trip id="veh66" type="veh_passenger" depart="42.11" departLane="best" departSpeed="max" from="-174445750" to="327294456#1"/>
    <trip id="veh67" type="veh_passenger" depart="42.75" departLane="best" from="327293346#1" to="-222779454"/>
    <trip id="veh68" type="veh_passenger" depart="43.39" departLane="best" departSpeed="max" from="174445897#0" to="222779527#5"/>
    <trip id="veh69" type="veh_passenger" depart="44.02" departLane="best" from="-553774935" to="590293727#2"/>
    <trip id="veh70" type="veh_passenger" depart="44.66" departLane="best" from="-174445688#0" to="-324822098#3"/>
    <trip id="veh71" type="veh_passenger" depart="45.30" departLane="best" from="222779483#0" to="324825482"/>
    <trip id="veh72" type="veh_passenger" depart="45.94" departLane="best" from="324563670#6" to="114212828"/>
    <trip id="veh73" type="veh_passenger" depart="46.58" departLane="best" from="-944528097#0" to="29472969#0"/>
    <trip id="veh74" type="veh_passenger" depart="47.21" departLane="best" from="-174445734" to="222779474#0"/>
    <trip id="veh75" type="veh_passenger" depart="47.85" departLane="best" from="197039302#1" to="-328967722#9"/>
    <trip id="veh76" type="veh_passenger" depart="48.49" departLane="best" departSpeed="max" from="127250996#0" to="244113489#1"/>
    <trip id="veh77" type="veh_passenger" depart="49.13" departLane="best" from="-328968077#2" to="-325260095"/>
    <trip id="veh78" type="veh_passenger" depart="49.77" departLane="best" from="-174445761#3" to="261594250"/>
    <trip id="veh79" type="veh_passenger" depart="50.40" departLane="best" from="-328967929#3" to="695797813#1"/>
    <trip id="veh80" type="veh_passenger" depart="51.04" departLane="best" from="550870778#1" to="174445809#1"/>
    <trip id="veh81" type="veh_passenger" depart="51.68" departLane="best" from="-385066018#0" to="29472983#1"/>
    <trip id="veh82" type="veh_passenger" depart="52.32" departLane="best" from="-324822098#3" to="-222779487"/>
    <trip id="veh83" type="veh_passenger" depart="52.96" departLane="best" from="695915942#10" to="222788355#1"/>
    <trip id="veh84" type="veh_passenger" depart="53.59" departLane="best" from="174445892#2" to="361457784#2"/>
    <trip id="veh85" type="veh_passenger" depart="54.23" departLane="best" from="426143698#2" to="324561113#0"/>
    <trip id="veh86" type="veh_passenger" depart="54.87" departLane="best" from="-174445894#1" to="174445793#1"/>
    <trip id="veh87" type="veh_passenger" depart="55.51" departLane="best" from="174445688#2" to="174445933#1"/>
    <trip id="veh88" type="veh_passenger" depart="56.15" departLane="best" from="324819630#0" to="29473042#3"/>
    <trip id="veh89" type="veh_passenger" depart="56.78" departLane="best" from="776674802#0" to="174445918#4"/>
    <trip id="veh90" type="veh_passenger" depart="57.42" departLane="best" from="129539579#3" to="-127260294#3"/>
    <trip id="veh91" type="veh_passenger" depart="58.06" departLane="best" from="553774933#0" to="-488880168"/>
    <trip id="veh92" type="veh_passenger" depart="58.70" departLane="best" from="323859430" to="174445860#1"/>
    <trip id="veh93" type="veh_passenger" depart="59.34" departLane="best" from="174445685#2" to="-695886637#6"/>
    <trip id="veh94" type="veh_passenger" depart="59.97" departLane="best" departSpeed="max" from="-488880156#1" to="695890686"/>
    <trip id="veh95" type="veh_passenger" depart="60.61" departLane="best" from="174445775#2" to="586643457"/>
    <trip id="veh96" type="veh_passenger" depart="61.25" departLane="best" from="222779504#0" to="-129539577#0"/>
    <trip id="veh97" type="veh_passenger" depart="61.89" departLane="best" from="967678853" to="492148661#4"/>
    <trip id="veh98" type="veh_passenger" depart="62.53" departLane="best" from="709291783#0" to="695891799#2"/>
    <trip id="veh99" type="veh_passenger" depart="63.16" departLane="best" from="544809079#1" to="244112746#1"/>
    <trip id="veh100" type="veh_passenger" depart="63.80" departLane="best" from="-174445938" to="325055454#2"/>
    <trip id="veh101" type="veh_passenger" depart="64.44" departLane="best" from="129539579#0" to="174445685#2"/>
    <trip id="veh102" type="veh_passenger" depart="65.08" departLane="best" from="127262258#1" to="776665983"/>
    <trip id="veh103" type="veh_passenger" depart="65.72" departLane="best" from="-572721304" to="361457784#0"/>
    <trip id="veh104" type="veh_passenger" depart="66.35" departLane="best" from="174445828#1" to="174445734"/>
    <trip id="veh105" type="veh_passenger" depart="66.99" departLane="best" departSpeed="max" from="222779511#0" to="324819630#1"/>
    <trip id="veh106" type="veh_passenger" depart="67.63" departLane="best" from="-222781991#0" to="-754144919#0"/>
    <trip id="veh107" type="veh_passenger" depart="68.27" departLane="best" from="709267253#1" to="223141043#2"/>
    <trip id="veh108" type="veh_passenger" depart="68.91" departLane="best" departSpeed="max" from="222779487" to="325258968#1"/>
    <trip id="veh109" type="veh_passenger" depart="69.54" departLane="best" from="-174445680#2" to="244112747#4"/>
    <trip id="veh110" type="veh_passenger" depart="70.18" departLane="best" departSpeed="max" from="197039295#0" to="560259115"/>
    <trip id="veh111" type="veh_passenger" depart="70.82" departLane="best" from="-222788316#1" to="-127262252#8"/>
    <trip id="veh112" type="veh_passenger" depart="71.46" departLane="best" from="-174445841#2" to="-255128210#0"/>
    <trip id="veh113" type="veh_passenger" depart="72.10" departLane="best" from="222788372#2" to="323859535"/>
    <trip id="veh114" type="veh_passenger" depart="72.73" departLane="best" departSpeed="max" from="-382593798#2" to="-197041723#0"/>
    <trip id="veh115" type="veh_passenger" depart="73.37" departLane="best" from="632451991#5" to="-453764994#0"/>
    <trip id="veh116" type="veh_passenger" depart="74.01" departLane="best" from="222788372#0" to="-255550486#2"/>
    <trip id="veh117" type="veh_passenger" depart="74.65" departLane="best" departSpeed="max" from="174445683" to="244112747#3"/>
    <trip id="veh118" type="veh_passenger" depart="75.29" departLane="best" from="217182208#0" to="695915942#9"/>
    <trip id="veh119" type="veh_passenger" depart="75.92" departLane="best" from="-324567302" to="324818953#0"/>
    <trip id="veh120" type="veh_passenger" depart="76.56" departLane="best" from="385066018#3" to="-129539593#5"/>
    <trip id="veh121" type="veh_passenger" depart="77.20" departLane="best" from="29472970#8" to="-754449793"/>
    <trip id="veh122" type="veh_passenger" depart="77.84" departLane="best" from="-754146294" to="325260098#2"/>
    <trip id="veh123" type="veh_passenger" depart="78.48" departLane="best" from="-174445767" to="174445894#1"/>
    <trip id="veh124" type="veh_passenger" depart="79.11" departLane="best" departSpeed="max" from="966641294" to="942534685"/>
    <trip id="veh125" type="veh_passenger" depart="79.75" departLane="best" from="-174445775#0" to="325053879#3"/>
    <trip id="veh126" type="veh_passenger" depart="80.39" departLane="best" from="-572721304" to="695915942#6"/>
    <trip id="veh127" type="veh_passenger" depart="81.03" departLane="best" departSpeed="max" from="595926357" to="632451983"/>
    <trip id="veh128" type="veh_passenger" depart="81.67" departLane="best" from="127260778#0" to="-222788316#1"/>
    <trip id="veh129" type="veh_passenger" depart="82.30" departLane="best" departSpeed="max" from="492148661#0" to="324602345#0"/>
    <trip id="veh130" type="veh_passenger" depart="82.94" departLane="best" from="244114183#1" to="776674802#3"/>
    <trip id="veh131" type="veh_passenger" depart="83.58" departLane="best" from="286442277" to="-127260284#5"/>
    <trip id="veh132" type="veh_passenger" depart="84.22" departLane="best" from="453764981#2" to="-754154751#2"/>
    <trip id="veh133" type="veh_passenger" depart="84.86" departLane="best" from="29472964#5" to="696086951"/>
    <trip id="veh134" type="veh_passenger" depart="85.49" departLane="best" from="197029383#1" to="-222780954#0"/>
    <trip id="veh135" type="veh_passenger" depart="86.13" departLane="best" from="-677321835#0" to="249138233#3"/>
    <trip id="veh136" type="veh_passenger" depart="86.77" departLane="best" from="776674802#3" to="324601618#1"/>
    <trip id="veh137" type="veh_passenger" depart="87.41" departLane="best" from="249138244#5" to="-595926358"/>
    <trip id="veh138" type="veh_passenger" depart="88.05" departLane="best" from="197029375" to="695797813#0"/>
    <trip id="veh139" type="veh_passenger" depart="88.68" departLane="best" from="530332321#2" to="-174445899#1"/>
    <trip id="veh140" type="veh_passenger" depart="89.32" departLane="best" from="174445688#2" to="695860519#2"/>
    <trip id="veh141" type="veh_passenger" depart="89.96" departLane="best" departSpeed="max" from="-1190447822" to="328967704#1"/>
    <trip id="veh142" type="veh_passenger" depart="90.60" departLane="best" from="255132341#2" to="586644844"/>
    <trip id="veh143" type="veh_passenger" depart="91.24" departLane="best" from="324822368#3" to="222779528#4"/>
    <trip id="veh144" type="veh_passenger" depart="91.87" departLane="best" from="174445707#2" to="-127260286#6"/>
    <trip id="veh145" type="veh_passenger" depart="92.51" departLane="best" from="-174445809#0" to="632451991#6"/>
    <trip id="veh146" type="veh_passenger" depart="93.15" departLane="best" from="695796380#0" to="222779523#2"/>
    <trip id="veh147" type="veh_passenger" depart="93.79" departLane="best" departSpeed="max" from="492148661#0" to="244112747#1"/>
    <trip id="veh148" type="veh_passenger" depart="94.43" departLane="best" from="222780950#3" to="222779453#0"/>
    <trip id="veh149" type="veh_passenger" depart="95.06" departLane="best" departSpeed="max" from="-709075088" to="695793536"/>
    <trip id="veh151" type="veh_passenger" depart="96.34" departLane="best" from="695784944" to="-324822008#3"/>
    <trip id="veh152" type="veh_passenger" depart="96.98" departLane="best" departSpeed="max" from="-488880156#1" to="197029386#1"/>
    <trip id="veh153" type="veh_passenger" depart="97.62" departLane="best" departSpeed="max" from="328967722#0" to="632451991#6"/>
    <trip id="veh154" type="veh_passenger" depart="98.25" departLane="best" from="129539583#2" to="255550488#1"/>
    <trip id="veh155" type="veh_passenger" depart="98.89" departLane="best" from="-222781989" to="695915942#10"/>
    <trip id="veh156" type="veh_passenger" depart="99.53" departLane="best" from="561893931#1" to="944528097#2"/>
    <trip id="veh157" type="veh_passenger" depart="100.17" departLane="best" from="-426144067#4" to="632451991#3"/>
    <trip id="veh158" type="veh_passenger" depart="100.81" departLane="best" from="127260769#3" to="325053200#3"/>
    <trip id="veh159" type="veh_passenger" depart="101.44" departLane="best" from="1148722877#1" to="695915942#12"/>
    <trip id="veh160" type="veh_passenger" depart="102.08" departLane="best" from="382593811" to="586643460#3"/>
    <trip id="veh161" type="veh_passenger" depart="102.72" departLane="best" from="-426144067#4" to="-669590867"/>
    <trip id="veh163" type="veh_passenger" depart="104.00" departLane="best" from="586643457" to="567039118#0"/>
    <trip id="veh164" type="veh_passenger" depart="104.63" departLane="best" from="-174445850#2" to="-966344492"/>
    <trip id="veh166" type="veh_passenger" depart="105.91" departLane="best" from="-127260768#6" to="-324563335#3"/>
    <trip id="veh167" type="veh_passenger" depart="106.55" departLane="best" from="114212829#0" to="586643460#4"/>
    <trip id="veh168" type="veh_passenger" depart="107.19" departLane="best" from="709252393#3" to="-695886639#1"/>
    <trip id="veh169" type="veh_passenger" depart="107.83" departLane="best" from="255550488#0" to="129539608#4"/>
    <trip id="veh170" type="veh_passenger" depart="108.46" departLane="best" from="754818532#0" to="222779512#2"/>
    <trip id="veh171" type="veh_passenger" depart="109.10" departLane="best" from="695915942#7" to="-197039295#0"/>
    <trip id="veh172" type="veh_passenger" depart="109.74" departLane="best" from="709291787#1" to="-249138225#0"/>
    <trip id="veh173" type="veh_passenger" depart="110.38" departLane="best" from="709252390#0" to="-618339630#1"/>
    <trip id="veh174" type="veh_passenger" depart="111.02" departLane="best" from="197029390#1" to="174445820#0"/>
    <trip id="veh175" type="veh_passenger" depart="111.65" departLane="best" from="324818953#1" to="114212829#3"/>
    <trip id="veh176" type="veh_passenger" depart="112.29" departLane="best" from="244112747#3" to="222779452#1"/>
    <trip id="veh177" type="veh_passenger" depart="112.93" departLane="best" from="127262265#2" to="-222788402#2"/>
    <trip id="veh178" type="veh_passenger" depart="113.57" departLane="best" from="-488880623#0" to="324606886#1"/>
    <trip id="veh179" type="veh_passenger" depart="114.21" departLane="best" departSpeed="max" from="-1180485069" to="695891486#3"/>
    <trip id="veh180" type="veh_passenger" depart="114.84" departLane="best" from="327300639#2" to="324819630#2"/>
    <trip id="veh181" type="veh_passenger" depart="115.48" departLane="best" from="324822368#4" to="29473041#4"/>
    <trip id="veh182" type="veh_passenger" depart="116.12" departLane="best" from="127260773#7" to="174445793#0"/>
    <trip id="veh183" type="veh_passenger" depart="116.76" departLane="best" from="29472968" to="127260286#7"/>
    <trip id="veh184" type="veh_passenger" depart="117.40" departLane="best" from="-751510574" to="54638900#6"/>
    <trip id="veh185" type="veh_passenger" depart="118.03" departLane="best" from="324606886#0" to="-754449793"/>
    <trip id="veh186" type="veh_passenger" depart="118.67" departLane="best" departSpeed="max" from="-709075089" to="174445685#5"/>
    <trip id="veh187" type="veh_passenger" depart="119.31" departLane="best" from="129539579#3" to="-754144549"/>
    <trip id="veh188" type="veh_passenger" depart="119.95" departLane="best" departSpeed="max" from="217182211" to="174445718#7"/>
    <trip id="veh189" type="veh_passenger" depart="120.59" departLane="best" from="695915942#9" to="323860095#0"/>
    <trip id="veh190" type="veh_passenger" depart="121.22" departLane="best" from="695796378#3" to="255132341#0"/>
    <trip id="veh191" type="veh_passenger" depart="121.86" departLane="best" departSpeed="max" from="-709068121" to="-222779526#2"/>
    <trip id="veh192" type="veh_passenger" depart="122.50" departLane="best" from="1086804301" to="-709064441"/>
    <trip id="veh193" type="veh_passenger" depart="123.14" departLane="best" from="174445718#0" to="223141043#4"/>
    <trip id="veh194" type="veh_passenger" depart="123.78" departLane="best" from="29472624" to="174445918#1"/>
    <trip id="veh195" type="veh_passenger" depart="124.41" departLane="best" from="-174445768" to="-325055454#2"/>
    <trip id="veh196" type="veh_passenger" depart="125.05" departLane="best" from="174445894#0" to="695796378#4"/>
    <trip id="veh198" type="veh_passenger" depart="126.33" departLane="best" from="-174445853#2" to="222779460#1"/>
    <trip id="veh199" type="veh_passenger" depart="126.97" departLane="best" from="249138241#0" to="-127260292#1"/>
    <trip id="veh200" type="veh_passenger" depart="127.60" departLane="best" from="453764983#2" to="-325260096#2"/>
    <trip id="veh201" type="veh_passenger" depart="128.24" departLane="best" from="29472971#2" to="-328967722#9"/>
    <trip id="veh202" type="veh_passenger" depart="128.88" departLane="best" from="-324563669#2" to="-127260771#3"/>
    <trip id="veh203" type="veh_passenger" depart="129.52" departLane="best" from="-453764983#0" to="197029390#1"/>
    <trip id="veh204" type="veh_passenger" depart="130.16" departLane="best" departSpeed="max" from="54638900#0" to="-174445828#0"/>
    <trip id="veh205" type="veh_passenger" depart="130.79" departLane="best" from="244112747#3" to="-255550495#0"/>
    <trip id="veh206" type="veh_passenger" depart="131.43" departLane="best" departSpeed="max" from="-324563557" to="-324568547#1"/>
    <trip id="veh207" type="veh_passenger" depart="132.07" departLane="best" from="197029396#6" to="453764986#0"/>
    <trip id="veh208" type="veh_passenger" depart="132.71" departLane="best" from="29472953#2" to="-127250999#0"/>
    <trip id="veh209" type="veh_passenger" depart="133.35" departLane="best" from="-325056056#1" to="327300742"/>
    <trip id="veh210" type="veh_passenger" depart="133.98" departLane="best" from="-197029375" to="174445755"/>
    <trip id="veh211" type="veh_passenger" depart="134.62" departLane="best" from="-249138234#2" to="709073440"/>
    <trip id="veh212" type="veh_passenger" depart="135.26" departLane="best" from="217182198#7" to="129539554#6"/>
    <trip id="veh213" type="veh_passenger" depart="135.90" departLane="best" departSpeed="max" from="-488880156#1" to="54638900#7"/>
    <trip id="veh214" type="veh_passenger" depart="136.54" departLane="best" from="174445831#1" to="426144065#0"/>
    <trip id="veh215" type="veh_passenger" depart="137.17" departLane="best" from="29472969#3" to="778446123"/>
    <trip id="veh216" type="veh_passenger" depart="137.81" departLane="best" from="-222788372#4" to="-709064443#2"/>
    <trip id="veh217" type="veh_passenger" depart="138.45" departLane="best" from="709785985" to="249138244#8"/>
    <trip id="veh218" type="veh_passenger" depart="139.09" departLane="best" from="324604844#3" to="217182211"/>
    <trip id="veh219" type="veh_passenger" depart="139.73" departLane="best" from="488910592#1" to="222779526#1"/>
    <trip id="veh220" type="veh_passenger" depart="140.36" departLane="best" from="677321833#2" to="325055557#2"/>
    <trip id="veh221" type="veh_passenger" depart="141.00" departLane="best" departSpeed="max" from="174445897#0" to="-550870778#2"/>
    <trip id="veh222" type="veh_passenger" depart="141.64" departLane="best" from="-453764986#3" to="29472953#6"/>
    <trip id="veh223" type="veh_passenger" depart="142.28" departLane="best" from="327293346#1" to="222779483#2"/>
    <trip id="veh224" type="veh_passenger" depart="142.92" departLane="best" from="-249138223#1" to="-695851449"/>
    <trip id="veh225" type="veh_passenger" depart="143.55" departLane="best" from="-174445828#2" to="-701916403#1"/>
    <trip id="veh226" type="veh_passenger" depart="144.19" departLane="best" from="-677321833#4" to="1185897050"/>
    <trip id="veh227" type="veh_passenger" depart="144.83" departLane="best" from="222779483#2" to="-222779510#1"/>
    <trip id="veh228" type="veh_passenger" depart="145.47" departLane="best" from="-328968084#0" to="324566701#0"/>
    <trip id="veh229" type="veh_passenger" depart="146.11" departLane="best" from="324567302" to="174445741"/>
    <trip id="veh230" type="veh_passenger" depart="146.74" departLane="best" from="129539583#4" to="222779521#1"/>
    <trip id="veh231" type="veh_passenger" depart="147.38" departLane="best" from="-174445680#3" to="-324602393#0"/>
    <trip id="veh232" type="veh_passenger" depart="148.02" departLane="best" departSpeed="max" from="174445683" to="695797810#0"/>
    <trip id="veh233" type="veh_passenger" depart="148.66" departLane="best" from="222781993#2" to="324568212"/>
    <trip id="veh234" type="veh_passenger" depart="149.30" departLane="best" departSpeed="max" from="550870778#0" to="327297919#1"/>
    <trip id="veh235" type="veh_passenger" depart="149.93" departLane="best" from="127262258#6" to="-127250999#0"/>
    <trip id="veh236" type="veh_passenger" depart="150.57" departLane="best" from="127260292#7" to="326298624#1"/>
    <trip id="veh237" type="veh_passenger" depart="151.21" departLane="best" from="54638900#4" to="709068122#1"/>
    <trip id="veh238" type="veh_passenger" depart="151.85" departLane="best" departSpeed="max" from="174445683" to="325258968#0"/>
    <trip id="veh239" type="veh_passenger" depart="152.49" departLane="best" from="222779491#6" to="249138225#5"/>
    <trip id="veh240" type="veh_passenger" depart="153.12" departLane="best" from="-325056056#0" to="-325258853#1"/>
    <trip id="veh241" type="veh_passenger" depart="153.76" departLane="best" from="174445721#0" to="-127260778#2"/>