<?xml version="1.0" encoding="UTF-8"?>

<!-- generated on 2023-10-18 11:25:12.150802 by osmWebWizard.py v1_18_0+0000-03ecfdea036
<configuration>
    <net-file value="C:\Users\ldvic\Sumo\2023-10-18-11-24-58\osm.net.xml.gz"/>
    <output-trip-file value="C:\Users\ldvic\Sumo\2023-10-18-11-24-58\osm.bicycle.trips.xml"/>
    <route-file value="C:\Users\ldvic\Sumo\2023-10-18-11-24-58\osm.bicycle.rou.xml"/>
    <prefix value="bike"/>
    <trip-attributes value="departLane=&quot;best&quot;"/>
    <fringe-start-attributes value="departSpeed=&quot;max&quot;"/>
    <vehicle-class value="bicycle"/>
    <fringe-factor value="2"/>
    <vclass value="bicycle"/>
    <via-edge-types value="highway.motorway,highway.motorway_link,highway.trunk_link,highway.primary_link,highway.secondary_link,highway.tertiary_link"/>
    <max-distance value="8000.0"/>
    <remove-loops value="True"/>
    <validate value="True"/>
    <insertion-density value="6.0"/>
</configuration>
-->

<!-- generated on 2023-10-18 11:25:10 by Eclipse SUMO duarouter Version 1.18.0
<configuration xmlns:xsi="http://www.w3.org/2001/XMLSchema-instance" xsi:noNamespaceSchemaLocation="http://sumo.dlr.de/xsd/duarouterConfiguration.xsd">

    <input>
        <net-file value="C:\Users\ldvic\Sumo\2023-10-18-11-24-58\osm.net.xml.gz"/>
        <route-files value="C:\Users\ldvic\Sumo\2023-10-18-11-24-58\osm.bicycle.trips.xml"/>
    </input>

    <output>
        <output-file value="C:\Users\ldvic\Sumo\2023-10-18-11-24-58\osm.bicycle.trips.xml.tmp"/>
        <alternatives-output value="NUL"/>
        <write-trips value="true"/>
    </output>

    <processing>
        <remove-loops value="true"/>
    </processing>

    <time>
        <begin value="0.0"/>
        <end value="3600.0"/>
    </time>

    <report>
        <no-warnings value="true"/>
        <ignore-errors value="true"/>
        <no-step-log value="true"/>
    </report>

</configuration>
-->

<routes xmlns:xsi="http://www.w3.org/2001/XMLSchema-instance" xsi:noNamespaceSchemaLocation="http://sumo.dlr.de/xsd/routes_file.xsd">
    <vType id="bike_bicycle" vClass="bicycle"/>
    <trip id="bike0" type="bike_bicycle" depart="0.00" departLane="best" from="222788402#2" to="127260294#8"/>
    <trip id="bike1" type="bike_bicycle" depart="1.82" departLane="best" from="-426144067#6" to="-324563638#1"/>
    <trip id="bike2" type="bike_bicycle" depart="3.63" departLane="best" from="324602346#1" to="29472953#6"/>
    <trip id="bike3" type="bike_bicycle" depart="5.45" departLane="best" from="618675336#1" to="-174445793#0"/>
    <trip id="bike4" type="bike_bicycle" depart="7.27" departLane="best" from="127260778#0" to="-127260771#1"/>
    <trip id="bike5" type="bike_bicycle" depart="9.08" departLane="best" from="-324561468#1" to="174445874#2"/>
    <trip id="bike6" type="bike_bicycle" depart="10.90" departLane="best" from="-127260294#7" to="-249138221#1"/>
    <trip id="bike7" type="bike_bicycle" depart="12.71" departLane="best" from="244114183#1" to="197039298#1"/>
    <trip id="bike8" type="bike_bicycle" depart="14.53" departLane="best" from="324563335#3" to="222779513#1"/>
    <trip id="bike9" type="bike_bicycle" depart="16.35" departLane="best" from="361457786" to="-127250997#4"/>
    <trip id="bike10" type="bike_bicycle" depart="18.16" departLane="best" from="328968077#5" to="29473042#5"/>
    <trip id="bike11" type="bike_bicycle" depart="19.98" departLane="best" from="-704084683" to="-222779478#0"/>
    <trip id="bike12" type="bike_bicycle" depart="21.80" departLane="best" from="-709073440" to="-709073437"/>
    <trip id="bike13" type="bike_bicycle" depart="23.61" departLane="best" from="-174445827#2" to="174445850#6"/>
    <trip id="bike14" type="bike_bicycle" depart="25.43" departLane="best" from="-488880177#1" to="-222780954#0"/>
    <trip id="bike15" type="bike_bicycle" depart="27.25" departLane="best" from="328968084#1" to="324604845"/>
    <trip id="bike16" type="bike_bicycle" depart="29.06" departLane="best" from="-174445933#0" to="754144556#0"/>
    <trip id="bike17" type="bike_bicycle" depart="30.88" departLane="best" from="114212829#2" to="-216870243#1"/>
    <trip id="bike18" type="bike_bicycle" depart="32.69" departLane="best" from="426147127" to="222788336#1"/>
    <trip id="bike19" type="bike_bicycle" depart="34.51" departLane="best" from="530332320#1" to="222779488#1"/>
    <trip id="bike20" type="bike_bicycle" depart="36.33" departLane="best" from="29472980#6" to="-127262258#0"/>
    <trip id="bike21" type="bike_bicycle" depart="38.14" departLane="best" from="324563670#3" to="-488910592#0"/>
    <trip id="bike22" type="bike_bicycle" depart="39.96" departLane="best" from="-174445717#3" to="324568820#1"/>
    <trip id="bike23" type="bike_bicycle" depart="41.78" departLane="best" from="174445853#0" to="-453764981#4"/>
    <trip id="bike24" type="bike_bicycle" depart="43.59" departLane="best" from="222788355#3" to="114212829#3"/>
    <trip id="bike25" type="bike_bicycle" depart="45.41" departLane="best" departSpeed="max" from="-914015589#1" to="-249138244#1"/>
    <trip id="bike26" type="bike_bicycle" depart="47.22" departLane="best" from="-374504423#1" to="696086950#3"/>
    <trip id="bike27" type="bike_bicycle" depart="49.04" departLane="best" from="244112749#0" to="222781424"/>
    <trip id="bike28" type="bike_bicycle" depart="50.86" departLane="best" from="-222779528#0" to="776674802#1"/>
    <trip id="bike29" type="bike_bicycle" depart="52.67" departLane="best" from="-222779504#4" to="127260284#5"/>
    <trip id="bike30" type="bike_bicycle" depart="54.49" departLane="best" from="845878064" to="249138216#2"/>
    <trip id="bike31" type="bike_bicycle" depart="56.31" departLane="best" from="197039298#0" to="29472970#3"/>
    <trip id="bike32" type="bike_bicycle" depart="58.12" departLane="best" from="461682119#0" to="327294456#3"/>
    <trip id="bike33" type="bike_bicycle" depart="59.94" departLane="best" departSpeed="max" from="-324563670#8" to="127260773#2"/>
    <trip id="bike34" type="bike_bicycle" depart="61.76" departLane="best" from="677321833#2" to="382593814#0"/>
    <trip id="bike35" type="bike_bicycle" depart="63.57" departLane="best" departSpeed="max" from="-249138244#9" to="701916401"/>
    <trip id="bike36" type="bike_bicycle" depart="65.39" departLane="best" from="560264008" to="-695796381#2"/>
    <trip id="bike37" type="bike_bicycle" depart="67.20" departLane="best" from="249138216#1" to="127260766#0"/>
    <trip id="bike38" type="bike_bicycle" depart="69.02" departLane="best" from="695796381#1" to="174445680#5"/>
    <trip id="bike39" type="bike_bicycle" depart="70.84" departLane="best" from="328968084#1" to="325055454#5"/>
    <trip id="bike40" type="bike_bicycle" depart="72.65" departLane="best" from="197039307#2" to="-328968077#6"/>
    <trip id="bike41" type="bike_bicycle" depart="74.47" departLane="best" from="-222779468#2" to="669585702#2"/>
    <trip id="bike42" type="bike_bicycle" depart="76.29" departLane="best" from="-127260289#7" to="324561468#2"/>
    <trip id="bike43" type="bike_bicycle" depart="78.10" departLane="best" departSpeed="max" from="966344492" to="174445882#0"/>
    <trip id="bike44" type="bike_bicycle" depart="79.92" departLane="best" from="-174445809#1" to="127262258#4"/>
    <trip id="bike45" type="bike_bicycle" depart="81.74" departLane="best" from="-174445876#1" to="223141043#2"/>
    <trip id="bike46" type="bike_bicycle" depart="83.55" departLane="best" from="327300639#1" to="127262258#6"/>
    <trip id="bike47" type="bike_bicycle" depart="85.37" departLane="best" departSpeed="max" from="-129539581#3" to="127260286#6"/>
    <trip id="bike48" type="bike_bicycle" depart="87.18" departLane="best" from="-944528097#0" to="197029383#1"/>
    <trip id="bike49" type="bike_bicycle" depart="89.00" departLane="best" departSpeed="max" from="753429181" to="545496519#2"/>
    <trip id="bike50" type="bike_bicycle" depart="90.82" departLane="best" from="-127260284#5" to="324568818#2"/>
    <trip id="bike51" type="bike_bicycle" depart="92.63" departLane="best" from="255550489#2" to="197032685"/>
    <trip id="bike52" type="bike_bicycle" depart="94.45" departLane="best" from="-374504423#1" to="249138217#3"/>
    <trip id="bike53" type="bike_bicycle" depart="96.27" departLane="best" from="-174445878#3" to="129539554#7"/>
    <trip id="bike54" type="bike_bicycle" depart="98.08" departLane="best" from="327300638#0" to="-709073434#2"/>
    <trip id="bike55" type="bike_bicycle" depart="99.90" departLane="best" from="560259115" to="-328968084#0"/>
    <trip id="bike56" type="bike_bicycle" depart="101.71" departLane="best" from="-174445827#1" to="-222781409"/>
    <trip id="bike57" type="bike_bicycle" depart="103.53" departLane="best" from="-695796380#0" to="567039119"/>
    <trip id="bike58" type="bike_bicycle" depart="105.35" departLane="best" from="-488931616#1" to="-249138215#0"/>
    <trip id="bike59" type="bike_bicycle" depart="107.16" departLane="best" departSpeed="max" from="222779525#0" to="-222779452#0"/>
    <trip id="bike60" type="bike_bicycle" depart="108.98" departLane="best" from="325053202#3" to="-197032691#0"/>
    <trip id="bike61" type="bike_bicycle" depart="110.80" departLane="best" from="325260099" to="197029386#3"/>
    <trip id="bike62" type="bike_bicycle" depart="112.61" departLane="best" from="1086804301" to="695891486#2"/>
    <trip id="bike63" type="bike_bicycle" depart="114.43" departLane="best" from="-127260289#7" to="695915941#1"/>
    <trip id="bike64" type="bike_bicycle" depart="116.25" departLane="best" from="567039115#1" to="461682115#1"/>
    <trip id="bike65" type="bike_bicycle" depart="118.06" departLane="best" from="-618339630#0" to="129539554#0"/>
    <trip id="bike66" type="bike_bicycle" depart="119.88" departLane="best" from="567039114" to="709064440"/>
    <trip id="bike67" type="bike_bicycle" depart="121.69" departLane="best" from="-174445761#2" to="-174445810#0"/>
    <trip id="bike68" type="bike_bicycle" depart="123.51" departLane="best" from="-131896327#7" to="325056058#2"/>
    <trip id="bike69" type="bike_bicycle" depart="125.33" departLane="best" from="-325055454#4" to="-197029390#4"/>
    <trip id="bike70" type="bike_bicycle" depart="127.14" departLane="best" from="-174445685#6" to="197041723#2"/>
    <trip id="bike71" type="bike_bicycle" depart="128.96" departLane="best" from="-328968084#1" to="572721306#1"/>
    <trip id="bike72" type="bike_bicycle" depart="130.78" departLane="best" from="127260778#4" to="249138244#8"/>
    <trip id="bike73" type="bike_bicycle" depart="132.59" departLane="best" from="197029371#0" to="324604845"/>
    <trip id="bike74" type="bike_bicycle" depart="134.41" departLane="best" from="249138225#2" to="-695784944"/>
    <trip id="bike75" type="bike_bicycle" depart="136.23" departLane="best" from="941226955" to="249138234#0"/>
    <trip id="bike76" type="bike_bicycle" depart="138.04" departLane="best" from="127262264#8" to="-174445902#5"/>
    <trip id="bike77" type="bike_bicycle" depart="139.86" departLane="best" from="174445912#1" to="-324563669#2"/>
    <trip id="bike78" type="bike_bicycle" depart="141.67" departLane="best" from="701916400#6" to="222779512#2"/>
    <trip id="bike79" type="bike_bicycle" depart="143.49" departLane="best" from="-324565633#1" to="-324563335#3"/>
    <trip id="bike80" type="bike_bicycle" depart="145.31" departLane="best" from="-174445680#4" to="244112747#3"/>
    <trip id="bike81" type="bike_bicycle" depart="147.12" departLane="best" departSpeed="max" from="-324563670#8" to="695796378#0"/>
    <trip id="bike82" type="bike_bicycle" depart="148.94" departLane="best" from="496130174#0" to="-174445682#7"/>
    <trip id="bike83" type="bike_bicycle" depart="150.76" departLane="best" from="-324601643#0" to="255550492#0"/>
    <trip id="bike84" type="bike_bicycle" depart="152.57" departLane="best" from="-255132341#3" to="-197029396#4"/>
    <trip id="bike85" type="bike_bicycle" depart="154.39" departLane="best" from="695915941#5" to="222779467#1"/>
    <trip id="bike86" type="bike_bicycle" depart="156.20" departLane="best" departSpeed="max" from="174445683" to="328967704#0"/>
    <trip id="bike87" type="bike_bicycle" depart="158.02" departLane="best" from="328968084#3" to="-223141042#0"/>
    <trip id="bike88" type="bike_bicycle" depart="159.84" departLane="best" from="-174445848#0" to="127262271#2"/>
    <trip id="bike89" type="bike_bicycle" depart="161.65" departLane="best" from="127260778#5" to="174445717#1"/>
    <trip id="bike90" type="bike_bicycle" depart="163.47" departLane="best" from="324568211#1" to="262579564#1"/>
    <trip id="bike91" type="bike_bicycle" depart="165.29" departLane="best" from="-778458569" to="174445853#1"/>
    <trip id="bike92" type="bike_bicycle" depart="167.10" departLane="best" from="127260292#9" to="-709495804"/>
    <trip id="bike93" type="bike_bicycle" depart="168.92" departLane="best" from="530332320#1" to="-325055684#0"/>
    <trip id="bike94" type="bike_bicycle" depart="170.74" departLane="best" from="222788402#3" to="129539593#4"/>
    <trip id="bike95" type="bike_bicycle" depart="172.55" departLane="best" from="127260778#0" to="453764983#0"/>
    <trip id="bike96" type="bike_bicycle" depart="174.37" departLane="best" from="-325055557#2" to="695886638#1"/>
    <trip id="bike98" type="bike_bicycle" depart="178.00" departLane="best" from="197032686" to="-127262264#6"/>
    <trip id="bike99" type="bike_bicycle" depart="179.82" departLane="best" from="967678852" to="488880162#0"/>
    <trip id="bike100" type="bike_bicycle" depart="181.63" departLane="best" from="751508147" to="695890686"/>
    <trip id="bike101" type="bike_bicycle" depart="183.45" departLane="best" from="488880623#1" to="-222779525#0"/>
    <trip id="bike102" type="bike_bicycle" depart="185.27" departLane="best" from="-174445727" to="-255132341#0"/>
    <trip id="bike103" type="bike_bicycle" depart="187.08" departLane="best" from="127260292#4" to="129539554#2"/>
    <trip id="bike104" type="bike_bicycle" depart="188.90" departLane="best" from="114212829#4" to="778458571#2"/>
    <trip id="bike105" type="bike_bicycle" depart="190.72" departLane="best" from="-328968084#3" to="327300639#7"/>
    <trip id="bike106" type="bike_bicycle" depart="192.53" departLane="best" from="129539579#1" to="-127262262#0"/>
    <trip id="bike107" type="bike_bicycle" depart="194.35" departLane="best" from="709073440" to="923758080#1"/>
    <trip id="bike108" type="bike_bicycle" depart="196.16" departLane="best" from="-197039293#0" to="324568240"/>
    <trip id="bike109" type="bike_bicycle" depart="197.98" departLane="best" departSpeed="max" from="-222779452#1" to="544809079#3"/>
    <trip id="bike110" type="bike_bicycle" depart="199.80" departLane="best" from="-751508143" to="222779491#6"/>
    <trip id="bike111" type="bike_bicycle" depart="201.61" departLane="best" from="197029386#3" to="324822650"/>
    <trip id="bike112" type="bike_bicycle" depart="203.43" departLane="best" from="127262271#1" to="222779504#2"/>
    <trip id="bike113" type="bike_bicycle" depart="205.25" departLane="best" from="174445831#0" to="496130174#1"/>
    <trip id="bike114" type="bike_bicycle" depart="207.06" departLane="best" from="222779468#0" to="709252391#2"/>
    <trip id="bike115" type="bike_bicycle" depart="208.88" departLane="best" from="-174445717#4" to="-222788372#1"/>
    <trip id="bike116" type="bike_bicycle" depart="210.69" departLane="best" departSpeed="max" from="222779498#0" to="29472953#1"/>
    <trip id="bike117" type="bike_bicycle" depart="212.51" departLane="best" from="-324568820#2" to="-174445918#1"/>
    <trip id="bike118" type="bike_bicycle" depart="214.33" departLane="best" departSpeed="max" from="595926358" to="325055454#4"/>
    <trip id="bike119" type="bike_bicycle" depart="216.14" departLane="best" from="222779497#2" to="-222788341#1"/>
    <trip id="bike120" type="bike_bicycle" depart="217.96" departLane="best" from="127260774#5" to="222779504#0"/>
    <trip id="bike121" type="bike_bicycle" depart="219.78" departLane="best" from="174445892#1" to="696086935#1"/>
    <trip id="bike122" type="bike_bicycle" depart="221.59" departLane="best" from="-249138234#3" to="324566701#1"/>
    <trip id="bike123" type="bike_bicycle" depart="223.41" departLane="best" from="324602346#0" to="127260766#1"/>
    <trip id="bike124" type="bike_bicycle" depart="225.23" departLane="best" from="249138244#3" to="-572721305#1"/>
    <trip id="bike125" type="bike_bicycle" depart="227.04" departLane="best" from="-677321833#4" to="325053202#3"/>
    <trip id="bike126" type="bike_bicycle" depart="228.86" departLane="best" from="-174445682#2" to="-174445680#4"/>
    <trip id="bike127" type="bike_bicycle" depart="230.67" departLane="best" from="967678851#0" to="941226956"/>
    <trip id="bike128" type="bike_bicycle" depart="232.49" departLane="best" from="-174445682#4" to="255128210#4"/>
    <trip id="bike129" type="bike_bicycle" depart="234.31" departLane="best" from="-328968084#3" to="695915942#6"/>
    <trip id="bike130" type="bike_bicycle" depart="236.12" departLane="best" from="572721305#2" to="590293722#1"/>
    <trip id="bike131" type="bike_bicycle" depart="237.94" departLane="best" departSpeed="max" from="-914015586" to="-222779487"/>
    <trip id="bike132" type="bike_bicycle" depart="239.76" departLane="best" from="453764981#2" to="324561468#3"/>
    <trip id="bike133" type="bike_bicycle" depart="241.57" departLane="best" from="222779526#3" to="845878060#1"/>
    <trip id="bike134" type="bike_bicycle" depart="243.39" departLane="best" from="-249138215#0" to="-127250999#0"/>
    <trip id="bike135" type="bike_bicycle" depart="245.21" departLane="best" from="-382593813" to="324568820#2"/>
    <trip id="bike136" type="bike_bicycle" depart="247.02" departLane="best" from="249138225#0" to="701476629"/>
    <trip id="bike137" type="bike_bicycle" depart="248.84" departLane="best" from="-197029391#2" to="174445902#1"/>
    <trip id="bike138" type="bike_bicycle" depart="250.65" departLane="best" from="-174445869#3" to="217182195"/>
    <trip id="bike139" type="bike_bicycle" depart="252.47" departLane="best" from="385066018#3" to="-222780951#3"/>
    <trip id="bike140" type="bike_bicycle" depart="254.29" departLane="best" from="324563335#1" to="-249138225#2"/>
    <trip id="bike141" type="bike_bicycle" depart="256.10" departLane="best" from="222788341#0" to="328968084#3"/>
    <trip id="bike142" type="bike_bicycle" depart="257.92" departLane="best" departSpeed="max" from="174445758" to="695796378#0"/>
    <trip id="bike143" type="bike_bicycle" depart="259.74" departLane="best" from="488880173" to="-174445841#1"/>
    <trip id="bike144" type="bike_bicycle" depart="261.55" departLane="best" from="127260778#5" to="-453764980#1"/>
    <trip id="bike145" type="bike_bicycle" depart="263.37" departLane="best" departSpeed="max" from="-1180485069" to="326298769#2"/>
    <trip id="bike146" type="bike_bicycle" depart="265.18" departLane="best" from="222788372#3" to="328968077#2"/>
    <trip id="bike147" type="bike_bicycle" depart="267.00" departLane="best" from="324606886#0" to="-216870243#0"/>
    <trip id="bike148" type="bike_bicycle" depart="268.82" departLane="best" from="127262252#3" to="-127260284#5"/>
    <trip id="bike149" type="bike_bicycle" depart="270.63" departLane="best" from="174445685#0" to="618675336#1"/>
    <trip id="bike150" type="bike_bicycle" depart="272.45" departLane="best" from="669585702#1" to="-197039302#0"/>
    <trip id="bike151" type="bike_bicycle" depart="274.27" departLane="best" from="453764983#0" to="222779500#2"/>
    <trip id="bike152" type="bike_bicycle" depart="276.08" departLane="best" from="-197041736#1" to="197029386#3"/>
    <trip id="bike153" type="bike_bicycle" depart="277.90" departLane="best" from="-653381592#0" to="673672240"/>
    <trip id="bike154" type="bike_bicycle" depart="279.72" departLane="best" from="328967711#1" to="736719037#1"/>
    <trip id="bike155" type="bike_bicycle" depart="281.53" departLane="best" from="666206068" to="249138244#3"/>
    <trip id="bike156" type="bike_bicycle" depart="283.35" departLane="best" from="-325055557#1" to="-174445869#1"/>
    <trip id="bike157" type="bike_bicycle" depart="285.16" departLane="best" from="326298648" to="620181786"/>
    <trip id="bike158" type="bike_bicycle" depart="286.98" departLane="best" from="127260294#7" to="222788355#4"/>
    <trip id="bike159" type="bike_bicycle" depart="288.80" departLane="best" departSpeed="max" from="-222779452#1" to="553774935"/>
    <trip id="bike160" type="bike_bicycle" depart="290.61" departLane="best" from="544799375#1" to="754154750#1"/>
    <trip id="bike162" type="bike_bicycle" depart="294.25" departLane="best" from="-127260294#13" to="324818804#5"/>
    <trip id="bike163" type="bike_bicycle" depart="296.06" departLane="best" departSpeed="max" from="-695891486#3" to="695915942#1"/>
    <trip id="bike164" type="bike_bicycle" depart="297.88" departLane="best" from="-328967929#0" to="-550870778#2"/>
    <trip id="bike166" type="bike_bicycle" depart="301.51" departLane="best" from="327297917" to="-174445880#0"/>
    <trip id="bike167" type="bike_bicycle" depart="303.33" departLane="best" departSpeed="max" from="550870778#0" to="544799376#0"/>
    <trip id="bike168" type="bike_bicycle" depart="305.14" departLane="best" departSpeed="max" from="-324563560" to="426144067#3"/>
    <trip id="bike169" type="bike_bicycle" depart="306.96" departLane="best" from="129539593#6" to="656372045#0"/>
    <trip id="bike170" type="bike_bicycle" depart="308.78" departLane="best" from="328967704#2" to="324564850"/>
    <trip id="bike171" type="bike_bicycle" depart="310.59" departLane="best" from="-127260294#10" to="-249138213#0"/>
    <trip id="bike172" type="bike_bicycle" depart="312.41" departLane="best" from="-695886637#2" to="-550870778#3"/>
    <trip id="bike173" type="bike_bicycle" depart="314.23" departLane="best" departSpeed="max" from="709495804" to="-453764983#2"/>
    <trip id="bike174" type="bike_bicycle" depart="316.04" departLane="best" from="223141043#0" to="127260768#5"/>
    <trip id="bike175" type="bike_bicycle" depart="317.86" departLane="best" from="776674802#1" to="197029398#1"/>
    <trip id="bike176" type="bike_bicycle" depart="319.67" departLane="best" from="695915942#7" to="-174445902#1"/>
    <trip id="bike177" type="bike_bicycle" depart="321.49" departLane="best" from="-751510573" to="222781409"/>
    <trip id="bike179" type="bike_bicycle" depart="325.12" departLane="best" from="-174445874#3" to="129539554#6"/>
    <trip id="bike180" type="bike_bicycle" depart="326.94" departLane="best" from="324567302" to="695796380#4"/>
    <trip id="bike181" type="bike_bicycle" depart="328.76" departLane="best" from="222779517#2" to="174445892#0"/>
    <trip id="bike182" type="bike_bicycle" depart="330.57" departLane="best" from="1195869166#2" to="222779485#1"/>
    <trip id="bike183" type="bike_bicycle" depart="332.39" departLane="best" from="-325258853#1" to="324563638#1"/>
    <trip id="bike184" type="bike_bicycle" depart="334.21" departLane="best" departSpeed="max" from="-1180484176" to="695887357#1"/>
    <trip id="bike185" type="bike_bicycle" depart="336.02" departLane="best" from="-197029368#0" to="324568547#2"/>
    <trip id="bike186" type="bike_bicycle" depart="337.84" departLane="best" from="324607019" to="255550494#1"/>
    <trip id="bike187" type="bike_bicycle" depart="339.65" departLane="best" from="-778458570" to="-174445682#3"/>
    <trip id="bike188" type="bike_bicycle" depart="341.47" departLane="best" from="249138225#2" to="701916403#0"/>
    <trip id="bike189" type="bike_bicycle" depart="343.29" departLane="best" from="-669249477#6" to="488931618"/>
    <trip id="bike190" type="bike_bicycle" depart="345.10" departLane="best" from="324563637#4" to="-572721305#2"/>
    <trip id="bike191" type="bike_bicycle" depart="346.92" departLane="best" from="656372044#1" to="127260776#1"/>
    <trip id="bike192" type="bike_bicycle" depart="348.74" departLane="best" from="127260292#8" to="528462450"/>
    <trip id="bike193" type="bike_bicycle" depart="350.55" departLane="best" from="-197029370" to="127262258#1"/>
    <trip id="bike194" type="bike_bicycle" depart="352.37" departLane="best" from="696086935#0" to="29472960#0"/>
    <trip id="bike195" type="bike_bicycle" depart="354.19" departLane="best" from="669249477#5" to="222782004"/>
    <trip id="bike196" type="bike_bicycle" depart="356.00" departLane="best" from="-528462450" to="197039307#0"/>
    <trip id="bike197" type="bike_bicycle" depart="357.82" departLane="best" from="-1086804301" to="-488880175"/>
    <trip id="bike198" type="bike_bicycle" depart="359.63" departLane="best" from="127262253#1" to="222779492#2"/>
    <trip id="bike199" type="bike_bicycle" depart="361.45" departLane="best" from="-249138215#2" to="174445688#2"/>
    <trip id="bike200" type="bike_bicycle" depart="363.27" departLane="best" from="127262269#5" to="-255132341#0"/>
    <trip id="bike201" type="bike_bicycle" depart="365.08" departLane="best" from="174445684" to="-677321835#0"/>
    <trip id="bike202" type="bike_bicycle" depart="366.90" departLane="best" from="328967711#0" to="222779528#1"/>
    <trip id="bike203" type="bike_bicycle" depart="368.72" departLane="best" from="-174445756" to="174445899#2"/>
    <trip id="bike204" type="bike_bicycle" depart="370.53" departLane="best" from="222788316#0" to="709073434#1"/>
    <trip id="bike205" type="bike_bicycle" depart="372.35" departLane="best" from="382593814#5" to="325053202#1"/>
    <trip id="bike206" type="bike_bicycle" depart="374.16" departLane="best" from="-249138244#7" to="-324563669#2"/>
    <trip id="bike207" type="bike_bicycle" depart="375.98" departLane="best" from="249138222#0" to="127260294#6"/>
    <trip id="bike208" type="bike_bicycle" depart="377.80" departLane="best" from="-324822650" to="174445745"/>
    <trip id="bike209" type="bike_bicycle" depart="379.61" departLane="best" from="488910592#1" to="174445685#2"/>
    <trip id="bike210" type="bike_bicycle" depart="381.43" departLane="best" from="127260771#3" to="243985619#2"/>
    <trip id="bike211" type="bike_bicycle" depart="383.25" departLane="best" from="249138216#2" to="29473041#8"/>
    <trip id="bike212" type="bike_bicycle" depart="385.06" departLane="best" from="174445800#1" to="-325053879#1"/>
    <trip id="bike213" type="bike_bicycle" depart="386.88" departLane="best" from="249138216#3" to="-127250997#1"/>
    <trip id="bike214" type="bike_bicycle" depart="388.70" departLane="best" from="324820417#1" to="326298624#2"/>
    <trip id="bike215" type="bike_bicycle" depart="390.51" departLane="best" from="-174445869#2" to="127262264#3"/>
    <trip id="bike216" type="bike_bicycle" depart="392.33" departLane="best" from="-222780952#4" to="709073442#2"/>
    <trip id="bike217" type="bike_bicycle" depart="394.14" departLane="best" from="174445876#1" to="127262264#4"/>
    <trip id="bike218" type="bike_bicycle" depart="395.96" departLane="best" from="-325055557#0" to="488931619#0"/>
    <trip id="bike219" type="bike_bicycle" depart="397.78" departLane="best" from="129539581#0" to="374505045"/>
    <trip id="bike220" type="bike_bicycle" depart="399.59" departLane="best" from="249138234#2" to="845878061"/>
    <trip id="bike221" type="bike_bicycle" depart="401.41" departLane="best" from="222779498#1" to="709068118"/>
    <trip id="bike222" type="bike_bicycle" depart="403.23" departLane="best" from="618339630#1" to="222781993#7"/>
    <trip id="bike223" type="bike_bicycle" depart="405.04" departLane="best" from="324563637#2" to="-174445874#1"/>
    <trip id="bike224" type="bike_bicycle" depart="406.86" departLane="best" from="453764976" to="197039307#0"/>
    <trip id="bike225" type="bike_bicycle" depart="408.68" departLane="best" from="656372038" to="324822008#3"/>
    <trip id="bike226" type="bike_bicycle" depart="410.49" departLane="best" from="174445685#4" to="-328967726#2"/>
    <trip id="bike227" type="bike_bicycle" depart="412.31" departLane="best" from="-325055454#3" to="244114183#8"/>
    <trip id="bike228" type="bike_bicycle" depart="414.12" departLane="best" from="-325055454#4" to="174445918#0"/>
    <trip id="bike229" type="bike_bicycle" depart="415.94" departLane="best" from="222781993#4" to="453764977#0"/>
    <trip id="bike230" type="bike_bicycle" depart="417.76" departLane="best" from="-174445688#0" to="-488880162#1"/>
    <trip id="bike231" type="bike_bicycle" depart="419.57" departLane="best" from="385066018#1" to="695860519#1"/>
    <trip id="bike232" type="bike_bicycle" depart="421.39" departLane="best" from="-197029375" to="197032692"/>
    <trip id="bike233" type="bike_bicycle" depart="423.21" departLane="best" from="-324566701#0" to="29473041#0"/>
    <trip id="bike234" type="bike_bicycle" depart="425.02" departLane="best" from="29472983#0" to="-129539593#8"/>
    <trip id="bike235" type="bike_bicycle" depart="426.84" departLane="best" from="127260766#0" to="-197039289"/>
    <trip id="bike236" type="bike_bicycle" depart="428.65" departLane="best" from="127260773#0" to="-249138240#0"/>
    <trip id="bike237" type="bike_bicycle" depart="430.47" departLane="best" from="127260776#1" to="695793535#1"/>
    <trip id="bike238" type="bike_bicycle" depart="432.29" departLane="best" from="-222779468#0" to="29473041#6"/>
    <trip id="bike239" type="bike_bicycle" depart="434.10" departLane="best" departSpeed="max" from="492148661#0" to="325258970#6"/>
    <trip id="bike240" type="bike_bicycle" depart="435.92" departLane="best" from="1148722877#0" to="127250997#2"/>
    <trip id="bike241" type="bike_bicycle" depart="437.74" departLane="best" departSpeed="max" from="-709075089" to="325053879#2"/>
    <trip id="bike242" type="bike_bicycle" depart="439.55" departLane="best" from="488931615" to="709073434#1"/>
    <trip id="bike243" type="bike_bicycle" depart="441.37" departLane="best" from="127260774#5" to="324822368#3"/>