<?xml version="1.0" encoding="UTF-8"?>

<!-- generated on 2023-10-18 11:25:16.470477 by osmWebWizard.py v1_18_0+0000-03ecfdea036
<configuration>
    <net-file value="C:\Users\ldvic\Sumo\2023-10-18-11-24-58\osm.net.xml.gz"/>
    <output-trip-file value="C:\Users\ldvic\Sumo\2023-10-18-11-24-58\osm.bus.trips.xml"/>
    <route-file value="C:\Users\ldvic\Sumo\2023-10-18-11-24-58\osm.bus.rou.xml"/>
    <prefix value="bus"/>
    <trip-attributes value="departLane=&quot;best&quot;"/>
    <fringe-start-attributes value="departSpeed=&quot;max&quot;"/>
    <vehicle-class value="bus"/>
    <fringe-factor value="5"/>
    <vclass value="bus"/>
    <via-edge-types value="highway.motorway,highway.motorway_link,highway.trunk_link,highway.primary_link,highway.secondary_link,highway.tertiary_link"/>
    <min-distance value="600.0"/>
    <min-distance.fringe value="10.0"/>
    <remove-loops value="True"/>
    <validate value="True"/>
    <insertion-density value="4.0"/>
</configuration>
-->

<!-- generated on 2023-10-18 11:25:15 by Eclipse SUMO duarouter Version 1.18.0
<configuration xmlns:xsi="http://www.w3.org/2001/XMLSchema-instance" xsi:noNamespaceSchemaLocation="http://sumo.dlr.de/xsd/duarouterConfiguration.xsd">

    <input>
        <net-file value="C:\Users\ldvic\Sumo\2023-10-18-11-24-58\osm.net.xml.gz"/>
        <route-files value="C:\Users\ldvic\Sumo\2023-10-18-11-24-58\osm.bus.trips.xml"/>
    </input>

    <output>
        <output-file value="C:\Users\ldvic\Sumo\2023-10-18-11-24-58\osm.bus.trips.xml.tmp"/>
        <alternatives-output value="NUL"/>
        <write-trips value="true"/>
    </output>

    <processing>
        <remove-loops value="true"/>
    </processing>

    <time>
        <begin value="0.0"/>
        <end value="3600.0"/>
    </time>

    <report>
        <no-warnings value="true"/>
        <ignore-errors value="true"/>
        <no-step-log value="true"/>
    </report>

</configuration>
-->

<routes xmlns:xsi="http://www.w3.org/2001/XMLSchema-instance" xsi:noNamespaceSchemaLocation="http://sumo.dlr.de/xsd/routes_file.xsd">
    <vType id="bus_bus" vClass="bus"/>
    <trip id="bus0" type="bus_bus" depart="0.00" departLane="best" from="222781995#1" to="-127260768#2"/>
    <trip id="bus1" type="bus_bus" depart="2.87" departLane="best" departSpeed="max" from="-382593798#2" to="-255550495#1"/>
    <trip id="bus2" type="bus_bus" depart="5.74" departLane="best" from="174445902#2" to="286442277"/>
    <trip id="bus3" type="bus_bus" depart="8.60" departLane="best" from="590293722#1" to="174445828#2"/>
    <trip id="bus4" type="bus_bus" depart="11.47" departLane="best" from="-255550486#0" to="174445878#3"/>
    <trip id="bus5" type="bus_bus" depart="14.34" departLane="best" from="127260768#2" to="-249138215#1"/>
    <trip id="bus6" type="bus_bus" depart="17.21" departLane="best" from="222788402#1" to="197039307#0"/>
    <trip id="bus7" type="bus_bus" depart="20.08" departLane="best" from="-255550495#1" to="222779513#1"/>
    <trip id="bus8" type="bus_bus" depart="22.94" departLane="best" from="328967929#0" to="-127250999#0"/>
    <trip id="bus9" type="bus_bus" depart="25.81" departLane="best" from="328967722#6" to="29473040"/>
    <trip id="bus10" type="bus_bus" depart="28.68" departLane="best" from="701916400#2" to="-222779487"/>
    <trip id="bus11" type="bus_bus" depart="31.55" departLane="best" from="709068118" to="-709064443#2"/>
    <trip id="bus12" type="bus_bus" depart="34.42" departLane="best" departSpeed="max" from="-174445830#2" to="174445860#0"/>
    <trip id="bus13" type="bus_bus" depart="37.29" departLane="best" departSpeed="max" from="453764994#0" to="-222780954#0"/>
    <trip id="bus14" type="bus_bus" depart="40.15" departLane="best" from="174445918#4" to="709495800"/>
    <trip id="bus15" type="bus_bus" depart="43.02" departLane="best" from="1086438230" to="217182198#3"/>
    <trip id="bus16" type="bus_bus" depart="45.89" departLane="best" from="385066018#3" to="222788316#0"/>
    <trip id="bus17" type="bus_bus" depart="48.76" departLane="best" from="492148661#2" to="222779492#0"/>
    <trip id="bus18" type="bus_bus" depart="51.63" departLane="best" from="29472963#2" to="127262258#5"/>
    <trip id="bus19" type="bus_bus" depart="54.49" departLane="best" departSpeed="max" from="-324563557" to="-453764994#0"/>
    <trip id="bus20" type="bus_bus" depart="57.36" departLane="best" from="-174445744" to="324563670#2"/>
    <trip id="bus21" type="bus_bus" depart="60.23" departLane="best" from="-174445854#3" to="-385066018#2"/>
    <trip id="bus22" type="bus_bus" depart="63.10" departLane="best" from="-222781991#1" to="1148722877#0"/>
    <trip id="bus23" type="bus_bus" depart="65.97" departLane="best" from="754154745" to="-249138223#1"/>
    <trip id="bus24" type="bus_bus" depart="68.83" departLane="best" from="-328967726#2" to="696086935#1"/>
    <trip id="bus25" type="bus_bus" depart="71.70" departLane="best" from="-222788393#1" to="222781422"/>
    <trip id="bus26" type="bus_bus" depart="74.57" departLane="best" from="222779526#2" to="324601618#2"/>
    <trip id="bus27" type="bus_bus" depart="77.44" departLane="best" departSpeed="max" from="-222779504#5" to="127260286#5"/>
    <trip id="bus28" type="bus_bus" depart="80.31" departLane="best" from="845878060#0" to="244114183#8"/>
    <trip id="bus29" type="bus_bus" depart="83.18" departLane="best" from="197039290#0" to="29472963#3"/>
    <trip id="bus30" type="bus_bus" depart="86.04" departLane="best" from="453764983#1" to="326298624#2"/>
    <trip id="bus31" type="bus_bus" depart="88.91" departLane="best" from="-667031134#0" to="-328968077#1"/>
    <trip id="bus32" type="bus_bus" depart="91.78" departLane="best" departSpeed="max" from="-249138241#1" to="701916400#6"/>
    <trip id="bus33" type="bus_bus" depart="94.65" departLane="best" departSpeed="max" from="54638938" to="-695784944"/>
    <trip id="bus34" type="bus_bus" depart="97.52" departLane="best" departSpeed="max" from="244112746#0" to="127260768#2"/>
    <trip id="bus35" type="bus_bus" depart="100.38" departLane="best" from="695796378#5" to="174445685#5"/>
    <trip id="bus36" type="bus_bus" depart="103.25" departLane="best" from="328967722#5" to="-324822008#1"/>
    <trip id="bus37" type="bus_bus" depart="106.12" departLane="best" departSpeed="max" from="197039303#0" to="-328967722#1"/>
    <trip id="bus38" type="bus_bus" depart="108.99" departLane="best" from="-222779453#0" to="669585702#3"/>
    <trip id="bus39" type="bus_bus" depart="111.86" departLane="best" from="127260287#8" to="-255128210#2"/>
    <trip id="bus40" type="bus_bus" depart="114.72" departLane="best" departSpeed="max" from="966641294" to="174445894#1"/>
    <trip id="bus41" type="bus_bus" depart="117.59" departLane="best" from="-174445828#2" to="-127262264#0"/>
    <trip id="bus42" type="bus_bus" depart="120.46" departLane="best" from="327293589" to="127262264#2"/>
    <trip id="bus43" type="bus_bus" depart="123.33" departLane="best" departSpeed="max" from="-129539581#3" to="127260287#4"/>
    <trip id="bus44" type="bus_bus" depart="126.20" departLane="best" departSpeed="max" from="966344492" to="-197029390#8"/>
    <trip id="bus45" type="bus_bus" depart="129.07" departLane="best" departSpeed="max" from="709495804" to="544799375#1"/>
    <trip id="bus46" type="bus_bus" depart="131.93" departLane="best" from="127260286#1" to="324564850"/>
    <trip id="bus47" type="bus_bus" depart="134.80" departLane="best" from="249138240#1" to="-197032691#3"/>
    <trip id="bus48" type="bus_bus" depart="137.67" departLane="best" from="-174445882#4" to="129539561#6"/>
    <trip id="bus49" type="bus_bus" depart="140.54" departLane="best" from="129539568#3" to="709068121"/>
    <trip id="bus50" type="bus_bus" depart="143.41" departLane="best" departSpeed="max" from="54638938" to="-328967722#5"/>
    <trip id="bus51" type="bus_bus" depart="146.27" departLane="best" from="174445825#1" to="-222780951#3"/>
    <trip id="bus52" type="bus_bus" depart="149.14" departLane="best" from="695793536" to="567039113"/>
    <trip id="bus53" type="bus_bus" depart="152.01" departLane="best" from="-488880623#1" to="244114183#5"/>
    <trip id="bus54" type="bus_bus" depart="154.88" departLane="best" departSpeed="max" from="222779511#0" to="-222779478#1"/>
    <trip id="bus55" type="bus_bus" depart="157.75" departLane="best" from="325056058#1" to="197029396#1"/>
    <trip id="bus56" type="bus_bus" depart="160.61" departLane="best" from="-1086804301" to="695886637#0"/>
    <trip id="bus57" type="bus_bus" depart="163.48" departLane="best" from="-127260292#2" to="695891486#3"/>
    <trip id="bus58" type="bus_bus" depart="166.35" departLane="best" from="550870778#2" to="453764983#2"/>
    <trip id="bus59" type="bus_bus" depart="169.22" departLane="best" from="-174445769" to="-174445828#2"/>
    <trip id="bus60" type="bus_bus" depart="172.09" departLane="best" from="174445682#0" to="325055454#2"/>
    <trip id="bus61" type="bus_bus" depart="174.96" departLane="best" from="324822008#7" to="-197029944"/>
    <trip id="bus62" type="bus_bus" depart="177.82" departLane="best" from="174445688#3" to="-216870243#1"/>
    <trip id="bus63" type="bus_bus" depart="180.69" departLane="best" from="328967722#6" to="572721304"/>
    <trip id="bus64" type="bus_bus" depart="183.56" departLane="best" from="127260778#0" to="-249138232#1"/>
    <trip id="bus65" type="bus_bus" depart="186.43" departLane="best" from="195667653" to="324601642"/>
    <trip id="bus66" type="bus_bus" depart="189.30" departLane="best" from="249138221#8" to="667031134#1"/>
    <trip id="bus67" type="bus_bus" depart="192.16" departLane="best" from="944528097#2" to="249138232#0"/>
    <trip id="bus68" type="bus_bus" depart="195.03" departLane="best" from="127262264#4" to="174445918#1"/>
    <trip id="bus69" type="bus_bus" depart="197.90" departLane="best" from="174445918#4" to="-324561468#0"/>
    <trip id="bus70" type="bus_bus" depart="200.77" departLane="best" from="-701916396" to="222779512#2"/>
    <trip id="bus71" type="bus_bus" depart="203.64" departLane="best" from="324563637#2" to="255132341#0"/>
    <trip id="bus72" type="bus_bus" depart="206.50" departLane="best" from="-174445682#7" to="243985619#0"/>
    <trip id="bus73" type="bus_bus" depart="209.37" departLane="best" departSpeed="max" from="-324563560" to="695793535#0"/>
    <trip id="bus74" type="bus_bus" depart="212.24" departLane="best" from="-324566701#0" to="255550488#5"/>
    <trip id="bus75" type="bus_bus" depart="215.11" departLane="best" from="-249138244#8" to="-197032693#0"/>
    <trip id="bus76" type="bus_bus" depart="217.98" departLane="best" departSpeed="max" from="695891799#0" to="222779474#1"/>
    <trip id="bus77" type="bus_bus" depart="220.85" departLane="best" from="174445685#1" to="327297918#4"/>
    <trip id="bus78" type="bus_bus" depart="223.71" departLane="best" from="-174445850#2" to="129539554#6"/>
    <trip id="bus79" type="bus_bus" depart="226.58" departLane="best" from="-127260778#1" to="174445718#5"/>
    <trip id="bus80" type="bus_bus" depart="229.45" departLane="best" from="324563335#3" to="255550492#5"/>
    <trip id="bus81" type="bus_bus" depart="232.32" departLane="best" from="775979532#0" to="174445869#2"/>
    <trip id="bus82" type="bus_bus" depart="235.19" departLane="best" from="127260292#0" to="-709073437"/>
    <trip id="bus83" type="bus_bus" depart="238.05" departLane="best" from="492148661#2" to="-324822098#0"/>
    <trip id="bus84" type="bus_bus" depart="240.92" departLane="best" from="222788381" to="129539608#0"/>
    <trip id="bus85" type="bus_bus" depart="243.79" departLane="best" from="127260776#2" to="-385066018#4"/>
    <trip id="bus86" type="bus_bus" depart="246.66" departLane="best" from="-324822008#7" to="695886637#5"/>
    <trip id="bus87" type="bus_bus" depart="249.53" departLane="best" departSpeed="max" from="127262269#0" to="544799375#3"/>
    <trip id="bus88" type="bus_bus" depart="252.39" departLane="best" departSpeed="max" from="197029942" to="-127262265#0"/>
    <trip id="bus89" type="bus_bus" depart="255.26" departLane="best" from="967678852" to="453764994#1"/>
    <trip id="bus90" type="bus_bus" depart="258.13" departLane="best" from="709291784" to="695887357#1"/>
    <trip id="bus91" type="bus_bus" depart="261.00" departLane="best" from="453764994#1" to="-222779525#0"/>
    <trip id="bus92" type="bus_bus" depart="263.87" departLane="best" from="-174445727" to="249138240#0"/>
    <trip id="bus93" type="bus_bus" depart="266.74" departLane="best" from="-127260289#4" to="129539554#4"/>
    <trip id="bus94" type="bus_bus" depart="269.60" departLane="best" from="1086440138" to="775979531"/>
    <trip id="bus95" type="bus_bus" depart="272.47" departLane="best" from="328967722#6" to="327297918#3"/>
    <trip id="bus96" type="bus_bus" depart="275.34" departLane="best" from="129539578#0" to="127262264#5"/>
    <trip id="bus97" type="bus_bus" depart="278.21" departLane="best" from="709068118" to="941226956"/>
    <trip id="bus98" type="bus_bus" depart="281.08" departLane="best" departSpeed="max" from="-222779453#3" to="-488910598#1"/>
    <trip id="bus99" type="bus_bus" depart="283.94" departLane="best" from="709291783#1" to="222779492#2"/>
    <trip id="bus100" type="bus_bus" depart="286.81" departLane="best" from="197029386#0" to="-324822008#0"/>
    <trip id="bus101" type="bus_bus" depart="289.68" departLane="best" departSpeed="max" from="174445828#0" to="488931612"/>
    <trip id="bus102" type="bus_bus" depart="292.55" departLane="best" from="-222779478#0" to="709073440"/>
    <trip id="bus103" type="bus_bus" depart="295.42" departLane="best" from="-174445748" to="-222788316#1"/>
    <trip id="bus104" type="bus_bus" depart="298.28" departLane="best" from="544799375#3" to="261594249"/>
    <trip id="bus105" type="bus_bus" depart="301.15" departLane="best" from="-324563670#5" to="-197029383#0"/>
    <trip id="bus106" type="bus_bus" depart="304.02" departLane="best" from="-586644844" to="-324821989#0"/>
    <trip id="bus107" type="bus_bus" depart="306.89" departLane="best" from="222779483#4" to="222788336#1"/>
    <trip id="bus108" type="bus_bus" depart="309.76" departLane="best" from="127260773#7" to="222779504#5"/>
    <trip id="bus109" type="bus_bus" depart="312.63" departLane="best" from="174445892#0" to="695915942#4"/>
    <trip id="bus110" type="bus_bus" depart="315.49" departLane="best" from="249138225#5" to="324563669#0"/>
    <trip id="bus111" type="bus_bus" depart="318.36" departLane="best" departSpeed="max" from="249138221#0" to="-528462450"/>
    <trip id="bus112" type="bus_bus" depart="321.23" departLane="best" departSpeed="max" from="966641294" to="944528097#0"/>
    <trip id="bus113" type="bus_bus" depart="324.10" departLane="best" from="328967722#6" to="695915942#10"/>
    <trip id="bus114" type="bus_bus" depart="326.97" departLane="best" from="556490926#1" to="586645583#1"/>
    <trip id="bus115" type="bus_bus" depart="329.83" departLane="best" from="488880160" to="-222779498#0"/>
    <trip id="bus116" type="bus_bus" depart="332.70" departLane="best" from="426144065#0" to="323859648#1"/>
    <trip id="bus117" type="bus_bus" depart="335.57" departLane="best" from="262579564#1" to="776674802#3"/>
    <trip id="bus118" type="bus_bus" depart="338.44" departLane="best" from="243985619#0" to="-127260284#0"/>
    <trip id="bus119" type="bus_bus" depart="341.31" departLane="best" from="361457789#3" to="-488931620"/>
    <trip id="bus120" type="bus_bus" depart="344.17" departLane="best" departSpeed="max" from="249138211" to="29472980#9"/>
    <trip id="bus121" type="bus_bus" depart="347.04" departLane="best" departSpeed="max" from="-197032690#1" to="-174445918#3"/>
    <trip id="bus122" type="bus_bus" depart="349.91" departLane="best" from="-174445874#4" to="217182198#7"/>
    <trip id="bus124" type="bus_bus" depart="355.65" departLane="best" from="29472983#1" to="-249138217#3"/>
    <trip id="bus125" type="bus_bus" depart="358.52" departLane="best" from="222780953#2" to="-328967722#7"/>
    <trip id="bus126" type="bus_bus" depart="361.38" departLane="best" departSpeed="max" from="174445758" to="695793534#1"/>
    <trip id="bus127" type="bus_bus" depart="364.25" departLane="best" from="453764988#0" to="174445850#6"/>
    <trip id="bus128" type="bus_bus" depart="367.12" departLane="best" from="127260778#1" to="-382593815"/>
    <trip id="bus129" type="bus_bus" depart="369.99" departLane="best" departSpeed="max" from="-1180485070" to="325258970#4"/>
    <trip id="bus130" type="bus_bus" depart="372.86" departLane="best" from="222781993#3" to="-328967722#0"/>
    <trip id="bus131" type="bus_bus" depart="375.72" departLane="best" from="324568818#2" to="324604844#3"/>
    <trip id="bus132" type="bus_bus" depart="378.59" departLane="best" departSpeed="max" from="127262252#0" to="-127260286#0"/>
    <trip id="bus133" type="bus_bus" depart="381.46" departLane="best" from="-174445688#3" to="590293727#2"/>
    <trip id="bus134" type="bus_bus" depart="384.33" departLane="best" from="666648560#0" to="197039307#2"/>
    <trip id="bus135" type="bus_bus" depart="387.20" departLane="best" from="426144066#1" to="222779504#1"/>
    <trip id="bus137" type="bus_bus" depart="392.93" departLane="best" from="-544809079#4" to="677321833#0"/>
    <trip id="bus138" type="bus_bus" depart="395.80" departLane="best" from="1148722877#2" to="-249138225#0"/>
    <trip id="bus139" type="bus_bus" depart="398.67" departLane="best" from="-324822008#5" to="174445878#3"/>
    <trip id="bus140" type="bus_bus" depart="401.54" departLane="best" from="325258853#0" to="596179829"/>
    <trip id="bus141" type="bus_bus" depart="404.41" departLane="best" from="-127260294#11" to="222788355#1"/>
    <trip id="bus142" type="bus_bus" depart="407.27" departLane="best" departSpeed="max" from="-222779453#3" to="695891486#3"/>
    <trip id="bus143" type="bus_bus" depart="410.14" departLane="best" from="505169870" to="944528097#2"/>
    <trip id="bus144" type="bus_bus" depart="413.01" departLane="best" from="328968057#0" to="590293725#2"/>
    <trip id="bus145" type="bus_bus" depart="415.88" departLane="best" from="127260294#6" to="324607019"/>
    <trip id="bus146" type="bus_bus" depart="418.75" departLane="best" from="328967704#3" to="54638900#2"/>
    <trip id="bus147" type="bus_bus" depart="421.61" departLane="best" from="326298624#1" to="174445899#0"/>
    <trip id="bus148" type="bus_bus" depart="424.48" departLane="best" departSpeed="max" from="54638900#0" to="528462450"/>
    <trip id="bus149" type="bus_bus" depart="427.35" departLane="best" from="323859430" to="385066018#3"/>
    <trip id="bus150" type="bus_bus" depart="430.22" departLane="best" from="327297918#1" to="-324563335#4"/>
    <trip id="bus151" type="bus_bus" depart="433.09" departLane="best" departSpeed="max" from="-695851448#1" to="54638900#3"/>
    <trip id="bus152" type="bus_bus" depart="435.95" departLane="best" from="709252393#6" to="-385066018#6"/>
    <trip id="bus153" type="bus_bus" depart="438.82" departLane="best" from="222782006#0" to="127260771#4"/>
    <trip id="bus154" type="bus_bus" depart="441.69" departLane="best" departSpeed="max" from="754449793" to="-197032691#0"/>
    <trip id="bus155" type="bus_bus" depart="444.56" departLane="best" departSpeed="max" from="695915942#0" to="-174445918#2"/>
    <trip id="bus156" type="bus_bus" depart="447.43" departLane="best" from="-709495800" to="-222780951#3"/>
    <trip id="bus157" type="bus_bus" depart="450.30" departLane="best" departSpeed="max" from="709073443#0" to="-328967726#2"/>
    <trip id="bus158" type="bus_bus" depart="453.16" departLane="best" from="-174445876#3" to="129539561#6"/>
    <trip id="bus159" type="bus_bus" depart="456.03" departLane="best" from="324563335#0" to="-677321833#5"/>
    <trip id="bus160" type="bus_bus" depart="458.90" departLane="best" departSpeed="max" from="222779510#0" to="-174445899#1"/>
    <trip id="bus161" type="bus_bus" depart="461.77" departLane="best" from="1185897050" to="222779491#2"/>
    <trip id="bus162" type="bus_bus" depart="464.64" departLane="best" departSpeed="max" from="-325055455" to="324561468#3"/>
    <trip id="bus163" type="bus_bus" depart="467.50" departLane="best" departSpeed="max" from="-1180485069" to="-695886639#0"/>
    <trip id="bus164" type="bus_bus" depart="470.37" departLane="best" from="174445934" to="324563670#8"/>
    <trip id="bus165" type="bus_bus" depart="473.24" departLane="best" from="324568820#0" to="-255550490"/>
    <trip id="bus166" type="bus_bus" depart="476.11" departLane="best" departSpeed="max" from="-709495809" to="-174445685#6"/>
    <trip id="bus167" type="bus_bus" depart="478.98" departLane="best" departSpeed="max" from="249138211" to="-701916398"/>
    <trip id="bus168" type="bus_bus" depart="481.84" departLane="best" departSpeed="max" from="-653381592#1" to="488910605"/>
    <trip id="bus169" type="bus_bus" depart="484.71" departLane="best" from="29473041#7" to="-544809079#0"/>
    <trip id="bus170" type="bus_bus" depart="487.58" departLane="best" from="-553774935" to="127260778#7"/>
    <trip id="bus171" type="bus_bus" depart="490.45" departLane="best" from="-127260289#8" to="-249138223#0"/>
    <trip id="bus172" type="bus_bus" depart="493.32" departLane="best" from="-197029390#3" to="127262264#1"/>
    <trip id="bus173" type="bus_bus" depart="496.19" departLane="best" departSpeed="max" from="695915942#0" to="29472624"/>
    <trip id="bus174" type="bus_bus" depart="499.05" departLane="best" from="656372038" to="-222782001#0"/>
    <trip id="bus175" type="bus_bus" depart="501.92" departLane="best" departSpeed="max" from="-488910605" to="216865710#1"/>
    <trip id="bus176" type="bus_bus" depart="504.79" departLane="best" from="-1086804301" to="-453764985#2"/>
    <trip id="bus177" type="bus_bus" depart="507.66" departLane="best" from="127262252#4" to="222779497#2"/>
    <trip id="bus178" type="bus_bus" depart="510.53" departLane="best" departSpeed="max" from="244112746#0" to="174445718#13"/>
    <trip id="bus179" type="bus_bus" depart="513.39" departLane="best" departSpeed="max" from="127262269#0" to="-249138240#0"/>
    <trip id="bus180" type="bus_bus" depart="516.26" departLane="best" from="-174445685#3" to="-677321835#1"/>
    <trip id="bus181" type="bus_bus" depart="519.13" departLane="best" departSpeed="max" from="-174445761#5" to="174445904#3"/>
    <trip id="bus182" type="bus_bus" depart="522.00" departLane="best" from="-222780952#3" to="-704084689#0"/>
    <trip id="bus184" type="bus_bus" depart="527.73" departLane="best" departSpeed="max" from="249138221#0" to="-324561468#0"/>
    <trip id="bus185" type="bus_bus" depart="530.60" departLane="best" from="249138221#1" to="-127260768#0"/>
    <trip id="bus186" type="bus_bus" depart="533.47" departLane="best" from="-324601643#0" to="174445761#5"/>
    <trip id="bus187" type="bus_bus" depart="536.34" departLane="best" from="453764995#1" to="174445717#3"/>
    <trip id="bus188" type="bus_bus" depart="539.21" departLane="best" from="127260769#0" to="324822368#1"/>
    <trip id="bus189" type="bus_bus" depart="542.08" departLane="best" from="223141042#1" to="29472980#8"/>
    <trip id="bus190" type="bus_bus" depart="544.94" departLane="best" from="174445778#1" to="-324602394"/>
    <trip id="bus191" type="bus_bus" depart="547.81" departLane="best" departSpeed="max" from="244112746#0" to="-127250997#4"/>
    <trip id="bus192" type="bus_bus" depart="550.68" departLane="best" from="324606886#0" to="325258970#0"/>
    <trip id="bus193" type="bus_bus" depart="553.55" departLane="best" from="-174445874#3" to="127262266"/>
    <trip id="bus194" type="bus_bus" depart="556.42" departLane="best" from="-222780952#3" to="709068124"/>
    <trip id="bus195" type="bus_bus" depart="559.28" departLane="best" from="-174445874#5" to="-127262265#0"/>
    <trip id="bus196" type="bus_bus" depart="562.15" departLane="best" from="324822008#4" to="488910605"/>
    <trip id="bus197" type="bus_bus" depart="565.02" departLane="best" from="129539578#5" to="-328968084#3"/>
    <trip id="bus198" type="bus_bus" depart="567.89" departLane="best" departSpeed="max" from="249138216#0" to="778446122"/>
    <trip id="bus199" type="bus_bus" depart="570.76" departLane="best" departSpeed="max" from="222779487" to="709064442"/>
    <trip id="bus200" type="bus_bus" depart="573.62" departLane="best" from="590293720#1" to="222781993#3"/>
    <trip id="bus201" type="bus_bus" depart="576.49" departLane="best" from="29473041#5" to="174445878#1"/>
    <trip id="bus202" type="bus_bus" depart="579.36" departLane="best" from="385066018#6" to="216865710#0"/>
    <trip id="bus203" type="bus_bus" depart="582.23" departLane="best" from="-618339630#0" to="324819630#0"/>
    <trip id="bus204" type="bus_bus" depart="585.10" departLane="best" from="174445688#1" to="-325260095"/>
    <trip id="bus205" type="bus_bus" depart="587.96" departLane="best" from="-324821158" to="244114183#0"/>
    <trip id="bus206" type="bus_bus" depart="590.83" departLane="best" from="324822008#5" to="174445938"/>
    <trip id="bus207" type="bus_bus" depart="593.70" departLane="best" departSpeed="max" from="222780949#0" to="-382593811"/>
    <trip id="bus208" type="bus_bus" depart="596.57" departLane="best" from="-174445717#6" to="-453764983#1"/>
    <trip id="bus209" type="bus_bus" depart="599.44" departLane="best" from="-328968084#4" to="695797813#2"/>
    <trip id="bus210" type="bus_bus" depart="602.31" departLane="best" from="197029370" to="-197039303#0"/>
    <trip id="bus211" type="bus_bus" depart="605.17" departLane="best" from="-324563638#0" to="29472980#12"/>
    <trip id="bus212" type="bus_bus" depart="608.04" departLane="best" from="29472964#5" to="174445680#1"/>
    <trip id="bus213" type="bus_bus" depart="610.91" departLane="best" from="127260294#3" to="197039298#2"/>
    <trip id="bus214" type="bus_bus" depart="613.78" departLane="best" from="-127260771#1" to="-249138221#3"/>
    <trip id="bus215" type="bus_bus" depart="616.65" departLane="best" from="127260774#3" to="695793534#0"/>
    <trip id="bus216" type="bus_bus" depart="619.51" departLane="best" from="222779450#6" to="29472980#5"/>
    <trip id="bus217" type="bus_bus" depart="622.38" departLane="best" from="488910598#1" to="325055684#1"/>
    <trip id="bus218" type="bus_bus" depart="625.25" departLane="best" from="114212671#2" to="-127250997#5"/>
    <trip id="bus219" type="bus_bus" depart="628.12" departLane="best" from="-709068122#0" to="324825482"/>
    <trip id="bus220" type="bus_bus" depart="630.99" departLane="best" from="-488880175" to="709068121"/>
    <trip id="bus221" type="bus_bus" depart="633.85" departLane="best" from="127260773#7" to="324821989#0"/>
    <trip id="bus222" type="bus_bus" depart="636.72" departLane="best" from="197029396#0" to="-222780950#3"/>
    <trip id="bus223" type="bus_bus" depart="639.59" departLane="best" from="-255550495#1" to="-255128210#2"/>
    <trip id="bus224" type="bus_bus" depart="642.46" departLane="best" from="127262258#5" to="127260771#4"/>
    <trip id="bus225" type="bus_bus" depart="645.33" departLane="best" departSpeed="max" from="-695891486#3" to="29472953#5"/>
    <trip id="bus226" type="bus_bus" depart="648.20" departLane="best" from="127260292#6" to="222779517#3"/>
    <trip id="bus228" type="bus_bus" depart="653.93" departLane="best" from="222779528#0" to="-127260769#0"/>
    <trip id="bus229" type="bus_bus" depart="656.80" departLane="best" from="-127260284#3" to="222779453#0"/>
    <trip id="bus230" type="bus_bus" depart="659.67" departLane="best" from="-127260768#4" to="-249138216#3"/>
    <trip id="bus231" type="bus_bus" depart="662.54" departLane="best" from="197032691#0" to="174445717#1"/>
    <trip id="bus232" type="bus_bus" depart="665.40" departLane="best" from="-127262264#2" to="127260286#4"/>
    <trip id="bus233" type="bus_bus" depart="668.27" departLane="best" departSpeed="max" from="-249138241#1" to="-695887358"/>
    <trip id="bus234" type="bus_bus" depart="671.14" departLane="best" from="324819630#2" to="127260286#4"/>
    <trip id="bus235" type="bus_bus" depart="674.01" departLane="best" from="324607020#2" to="453764983#2"/>
    <trip id="bus236" type="bus_bus" depart="676.88" departLane="best" from="-325053879#3" to="-174445784#1"/>
    <trip id="bus237" type="bus_bus" depart="679.74" departLane="best" from="127260292#2" to="197039290#0"/>
    <trip id="bus238" type="bus_bus" depart="682.61" departLane="best" from="967721190" to="-754154751#1"/>
    <trip id="bus239" type="bus_bus" depart="685.48" departLane="best" from="222788402#2" to="327294456#2"/>
    <trip id="bus240" type="bus_bus" depart="688.35" departLane="best" from="223141043#0" to="324825482"/>
    <trip id="bus241" type="bus_bus" depart="691.22" departLane="best" from="701916398" to="-249138216#0"/>
    <trip id="bus242" type="bus_bus" depart="694.09" departLane="best" from="127260292#5" to="-222779478#0"/>
    <trip id="bus243" type="bus_bus" depart="696.95" departLane="best" from="-197029386#1" to="255550489#0"/>
    <trip id="bus244" type="bus_bus" depart="699.82" departLane="best" from="197039307#0" to="-249138244#6"/>
    <trip id="bus245" type="bus_bus" depart="702.69" departLane="best" from="261594249" to="-325056058#1"/>
    <trip id="bus246" type="bus_bus" depart="705.56" departLane="best" from="-222779517#1" to="-222780954#1"/>
    <trip id="bus247" type="bus_bus" depart="708.43" departLane="best" departSpeed="max" from="324602393#0" to="-174445918#0"/>
    <trip id="bus249" type="bus_bus" depart="714.16" departLane="best" from="-174445876#2" to="-127260768#4"/>
    <trip id="bus250" type="bus_bus" depart="717.03" departLane="best" from="-590293719#0" to="29472624"/>
    <trip id="bus251" type="bus_bus" depart="719.90" departLane="best" from="29472980#5" to="-174445748"/>
    <trip id="bus252" type="bus_bus" depart="722.77" departLane="best" from="255550486#0" to="-222788402#2"/>