<?xml version="1.0" encoding="UTF-8"?>

<!-- generated on 2023-10-18 11:25:19.805681 by osmWebWizard.py v1_18_0+0000-03ecfdea036
<configuration>
    <net-file value="C:\Users\ldvic\Sumo\2023-10-18-11-24-58\osm.net.xml.gz"/>
    <output-trip-file value="C:\Users\ldvic\Sumo\2023-10-18-11-24-58\osm.motorcycle.trips.xml"/>
    <route-file value="C:\Users\ldvic\Sumo\2023-10-18-11-24-58\osm.motorcycle.rou.xml"/>
    <prefix value="motorcycle"/>
    <trip-attributes value="departLane=&quot;best&quot;"/>
    <fringe-start-attributes value="departSpeed=&quot;max&quot;"/>
    <vehicle-class value="motorcycle"/>
    <fringe-factor value="2"/>
    <vclass value="motorcycle"/>
    <via-edge-types value="highway.motorway,highway.motorway_link,highway.trunk_link,highway.primary_link,highway.secondary_link,highway.tertiary_link"/>
    <max-distance value="1200.0"/>
    <remove-loops value="True"/>
    <validate value="True"/>
    <insertion-density value="4.0"/>
</configuration>
-->

<!-- generated on 2023-10-18 11:25:19 by Eclipse SUMO duarouter Version 1.18.0
<configuration xmlns:xsi="http://www.w3.org/2001/XMLSchema-instance" xsi:noNamespaceSchemaLocation="http://sumo.dlr.de/xsd/duarouterConfiguration.xsd">

    <input>
        <net-file value="C:\Users\ldvic\Sumo\2023-10-18-11-24-58\osm.net.xml.gz"/>
        <route-files value="C:\Users\ldvic\Sumo\2023-10-18-11-24-58\osm.motorcycle.trips.xml"/>
    </input>

    <output>
        <output-file value="C:\Users\ldvic\Sumo\2023-10-18-11-24-58\osm.motorcycle.trips.xml.tmp"/>
        <alternatives-output value="NUL"/>
        <write-trips value="true"/>
    </output>

    <processing>
        <remove-loops value="true"/>
    </processing>

    <time>
        <begin value="0.0"/>
        <end value="3600.0"/>
    </time>

    <report>
        <no-warnings value="true"/>
        <ignore-errors value="true"/>
        <no-step-log value="true"/>
    </report>

</configuration>
-->

<routes xmlns:xsi="http://www.w3.org/2001/XMLSchema-instance" xsi:noNamespaceSchemaLocation="http://sumo.dlr.de/xsd/routes_file.xsd">
    <vType id="motorcycle_motorcycle" vClass="motorcycle"/>
    <trip id="motorcycle0" type="motorcycle_motorcycle" depart="0.00" departLane="best" from="222788402#1" to="127260294#9"/>
    <trip id="motorcycle1" type="motorcycle_motorcycle" depart="2.87" departLane="best" from="-255550487" to="174445876#2"/>
    <trip id="motorcycle2" type="motorcycle_motorcycle" depart="5.74" departLane="best" from="-174445830#1" to="-174445850#7"/>
    <trip id="motorcycle3" type="motorcycle_motorcycle" depart="8.61" departLane="best" from="328967726#0" to="324568818#3"/>
    <trip id="motorcycle4" type="motorcycle_motorcycle" depart="11.48" departLane="best" from="-174445721#1" to="-174445902#2"/>
    <trip id="motorcycle5" type="motorcycle_motorcycle" depart="14.36" departLane="best" from="-174445853#3" to="-426144067#1"/>
    <trip id="motorcycle6" type="motorcycle_motorcycle" depart="17.23" departLane="best" from="222788355#3" to="1180485069"/>
    <trip id="motorcycle7" type="motorcycle_motorcycle" depart="20.10" departLane="best" from="114212829#4" to="249138234#1"/>
    <trip id="motorcycle8" type="motorcycle_motorcycle" depart="22.97" departLane="best" from="453764983#2" to="325258970#5"/>
    <trip id="motorcycle9" type="motorcycle_motorcycle" depart="25.84" departLane="best" from="-324563638#3" to="127260773#2"/>
    <trip id="motorcycle10" type="motorcycle_motorcycle" depart="28.71" departLane="best" from="249138244#0" to="696086950#2"/>
    <trip id="motorcycle11" type="motorcycle_motorcycle" depart="31.58" departLane="best" from="249138215#1" to="-127260768#6"/>
    <trip id="motorcycle12" type="motorcycle_motorcycle" depart="34.45" departLane="best" from="695796378#4" to="174445685#2"/>
    <trip id="motorcycle13" type="motorcycle_motorcycle" depart="37.32" departLane="best" from="327294456#2" to="127262264#3"/>
    <trip id="motorcycle14" type="motorcycle_motorcycle" depart="40.20" departLane="best" from="709291787#0" to="544799375#3"/>
    <trip id="motorcycle15" type="motorcycle_motorcycle" depart="43.07" departLane="best" from="127260286#6" to="324563670#1"/>
    <trip id="motorcycle16" type="motorcycle_motorcycle" depart="45.94" departLane="best" departSpeed="max" from="-488910605" to="244113489#0"/>
    <trip id="motorcycle17" type="motorcycle_motorcycle" depart="48.81" departLane="best" from="-324822098#1" to="-197032691#0"/>
    <trip id="motorcycle18" type="motorcycle_motorcycle" depart="51.68" departLane="best" from="-174445767" to="-174445827#0"/>
    <trip id="motorcycle19" type="motorcycle_motorcycle" depart="54.55" departLane="best" from="127262253#4" to="249138240#4"/>
    <trip id="motorcycle20" type="motorcycle_motorcycle" depart="57.42" departLane="best" from="197029390#7" to="324568818#4"/>
    <trip id="motorcycle21" type="motorcycle_motorcycle" depart="60.29" departLane="best" from="-704084683" to="222779508#0"/>
    <trip id="motorcycle22" type="motorcycle_motorcycle" depart="63.16" departLane="best" from="-174445682#3" to="223141042#1"/>
    <trip id="motorcycle23" type="motorcycle_motorcycle" depart="66.03" departLane="best" from="-324563638#3" to="677321833#5"/>
    <trip id="motorcycle24" type="motorcycle_motorcycle" depart="68.91" departLane="best" from="-488931619#0" to="174445682#9"/>
    <trip id="motorcycle25" type="motorcycle_motorcycle" depart="71.78" departLane="best" from="324568820#0" to="255132343#1"/>
    <trip id="motorcycle26" type="motorcycle_motorcycle" depart="74.65" departLane="best" from="174445718#0" to="327250900#0"/>
    <trip id="motorcycle27" type="motorcycle_motorcycle" depart="77.52" departLane="best" from="328967726#1" to="222788393#1"/>
    <trip id="motorcycle28" type="motorcycle_motorcycle" depart="80.39" departLane="best" from="127260768#4" to="709073438#0"/>
    <trip id="motorcycle29" type="motorcycle_motorcycle" depart="83.26" departLane="best" from="127262253#0" to="-426144067#3"/>
    <trip id="motorcycle30" type="motorcycle_motorcycle" depart="86.13" departLane="best" from="-325053879#3" to="695860515#6"/>
    <trip id="motorcycle31" type="motorcycle_motorcycle" depart="89.00" departLane="best" from="-197039288" to="-127262264#2"/>
    <trip id="motorcycle32" type="motorcycle_motorcycle" depart="91.87" departLane="best" from="709267253#1" to="695860520"/>
    <trip id="motorcycle33" type="motorcycle_motorcycle" depart="94.75" departLane="best" from="129539593#8" to="127262264#5"/>
    <trip id="motorcycle34" type="motorcycle_motorcycle" depart="97.62" departLane="best" from="127262271#1" to="222779498#2"/>
    <trip id="motorcycle35" type="motorcycle_motorcycle" depart="100.49" departLane="best" from="-174445727" to="-222788336#1"/>
    <trip id="motorcycle36" type="motorcycle_motorcycle" depart="103.36" departLane="best" from="222779500#3" to="255550491#2"/>
    <trip id="motorcycle37" type="motorcycle_motorcycle" depart="106.23" departLane="best" from="590293719#0" to="324822098#0"/>
    <trip id="motorcycle38" type="motorcycle_motorcycle" depart="109.10" departLane="best" from="222779500#1" to="222782004"/>
    <trip id="motorcycle39" type="motorcycle_motorcycle" depart="111.97" departLane="best" from="127262252#1" to="222779498#1"/>
    <trip id="motorcycle40" type="motorcycle_motorcycle" depart="114.84" departLane="best" from="-324568820#2" to="127260768#7"/>
    <trip id="motorcycle41" type="motorcycle_motorcycle" depart="117.71" departLane="best" from="-174445682#9" to="-174445685#0"/>
    <trip id="motorcycle42" type="motorcycle_motorcycle" depart="120.59" departLane="best" from="967678851#0" to="942534685"/>
    <trip id="motorcycle43" type="motorcycle_motorcycle" depart="123.46" departLane="best" from="174445685#0" to="249138244#0"/>
    <trip id="motorcycle44" type="motorcycle_motorcycle" depart="126.33" departLane="best" from="328967726#3" to="695891486#2"/>
    <trip id="motorcycle45" type="motorcycle_motorcycle" depart="129.20" departLane="best" from="114212829#2" to="-222779480"/>
    <trip id="motorcycle46" type="motorcycle_motorcycle" depart="132.07" departLane="best" from="249138212#0" to="-127260284#3"/>
    <trip id="motorcycle47" type="motorcycle_motorcycle" depart="134.94" departLane="best" from="-222788341#1" to="-328967726#1"/>
    <trip id="motorcycle48" type="motorcycle_motorcycle" depart="137.81" departLane="best" from="174445803#2" to="677321833#4"/>
    <trip id="motorcycle49" type="motorcycle_motorcycle" depart="140.68" departLane="best" from="-127262253#5" to="385066018#3"/>
    <trip id="motorcycle50" type="motorcycle_motorcycle" depart="143.55" departLane="best" from="1195869166#1" to="-325056058#1"/>
    <trip id="motorcycle51" type="motorcycle_motorcycle" depart="146.43" departLane="best" from="-222788372#3" to="-328967722#5"/>
    <trip id="motorcycle52" type="motorcycle_motorcycle" depart="149.30" departLane="best" from="-572721306#2" to="666648560#0"/>
    <trip id="motorcycle53" type="motorcycle_motorcycle" depart="152.17" departLane="best" from="127260771#5" to="-222788298"/>
    <trip id="motorcycle54" type="motorcycle_motorcycle" depart="155.04" departLane="best" from="496130175" to="751508148#1"/>
    <trip id="motorcycle55" type="motorcycle_motorcycle" depart="157.91" departLane="best" from="-127260294#6" to="324602394"/>
    <trip id="motorcycle56" type="motorcycle_motorcycle" depart="160.78" departLane="best" from="328967929#4" to="-328968077#0"/>
    <trip id="motorcycle57" type="motorcycle_motorcycle" depart="163.65" departLane="best" departSpeed="max" from="54638900#0" to="492148661#2"/>
    <trip id="motorcycle58" type="motorcycle_motorcycle" depart="166.52" departLane="best" from="-174445680#3" to="572721306#1"/>
    <trip id="motorcycle59" type="motorcycle_motorcycle" depart="169.39" departLane="best" from="709291784" to="-222780951#4"/>
    <trip id="motorcycle60" type="motorcycle_motorcycle" depart="172.26" departLane="best" from="709073443#4" to="-328967929#2"/>
    <trip id="motorcycle61" type="motorcycle_motorcycle" depart="175.14" departLane="best" from="-197029390#4" to="-324563669#1"/>
    <trip id="motorcycle62" type="motorcycle_motorcycle" depart="178.01" departLane="best" from="249138223#1" to="-701916400#1"/>
    <trip id="motorcycle63" type="motorcycle_motorcycle" depart="180.88" departLane="best" from="-1086804301" to="-453764986#0"/>
    <trip id="motorcycle64" type="motorcycle_motorcycle" depart="183.75" departLane="best" from="-127262264#5" to="-222779489#1"/>
    <trip id="motorcycle65" type="motorcycle_motorcycle" depart="186.62" departLane="best" from="129539561#5" to="-249138244#2"/>
    <trip id="motorcycle66" type="motorcycle_motorcycle" depart="189.49" departLane="best" from="174445718#10" to="667031134#1"/>
    <trip id="motorcycle67" type="motorcycle_motorcycle" depart="192.36" departLane="best" departSpeed="max" from="-174445761#5" to="174445902#1"/>
    <trip id="motorcycle68" type="motorcycle_motorcycle" depart="195.23" departLane="best" from="222788316#1" to="-709064443#0"/>
    <trip id="motorcycle69" type="motorcycle_motorcycle" depart="198.10" departLane="best" from="361457789#3" to="324821462#0"/>
    <trip id="motorcycle70" type="motorcycle_motorcycle" depart="200.98" departLane="best" from="249138221#2" to="-127260294#7"/>
    <trip id="motorcycle71" type="motorcycle_motorcycle" depart="203.85" departLane="best" from="127260778#2" to="-222788402#3"/>
    <trip id="motorcycle72" type="motorcycle_motorcycle" depart="206.72" departLane="best" from="174445869#3" to="127262266"/>
    <trip id="motorcycle73" type="motorcycle_motorcycle" depart="209.59" departLane="best" from="590293722#0" to="222781424"/>
    <trip id="motorcycle74" type="motorcycle_motorcycle" depart="212.46" departLane="best" from="323860634#3" to="174445876#0"/>
    <trip id="motorcycle75" type="motorcycle_motorcycle" depart="215.33" departLane="best" from="426143698#1" to="197039304#1"/>
    <trip id="motorcycle76" type="motorcycle_motorcycle" depart="218.20" departLane="best" from="618675336#3" to="324607275#2"/>
    <trip id="motorcycle77" type="motorcycle_motorcycle" depart="221.07" departLane="best" from="-324822098#1" to="244112749#0"/>
    <trip id="motorcycle78" type="motorcycle_motorcycle" depart="223.94" departLane="best" from="-174445717#1" to="-453764984"/>
    <trip id="motorcycle79" type="motorcycle_motorcycle" depart="226.82" departLane="best" from="197029391#0" to="-197032691#4"/>
    <trip id="motorcycle80" type="motorcycle_motorcycle" depart="229.69" departLane="best" from="29472980#13" to="-129539593#2"/>
    <trip id="motorcycle81" type="motorcycle_motorcycle" depart="232.56" departLane="best" from="-488880175" to="709064441"/>
    <trip id="motorcycle82" type="motorcycle_motorcycle" depart="235.43" departLane="best" from="127262252#1" to="324819629#1"/>
    <trip id="motorcycle83" type="motorcycle_motorcycle" depart="238.30" departLane="best" from="-174445688#0" to="197029386#2"/>
    <trip id="motorcycle84" type="motorcycle_motorcycle" depart="241.17" departLane="best" from="324818804#3" to="428031546#0"/>
    <trip id="motorcycle85" type="motorcycle_motorcycle" depart="244.04" departLane="best" from="-127260292#4" to="-197032691#0"/>
    <trip id="motorcycle86" type="motorcycle_motorcycle" depart="246.91" departLane="best" from="244113489#0" to="244112747#3"/>
    <trip id="motorcycle87" type="motorcycle_motorcycle" depart="249.78" departLane="best" from="244114183#4" to="324822008#5"/>
    <trip id="motorcycle88" type="motorcycle_motorcycle" depart="252.66" departLane="best" from="-174445933#2" to="255550486#0"/>
    <trip id="motorcycle89" type="motorcycle_motorcycle" depart="255.53" departLane="best" from="217182195" to="255132341#1"/>
    <trip id="motorcycle90" type="motorcycle_motorcycle" depart="258.40" departLane="best" from="-222779517#2" to="-222780954#0"/>
    <trip id="motorcycle91" type="motorcycle_motorcycle" depart="261.27" departLane="best" from="-174445874#4" to="-127260768#1"/>
    <trip id="motorcycle92" type="motorcycle_motorcycle" depart="264.14" departLane="best" from="709068119" to="-127260769#1"/>
    <trip id="motorcycle93" type="motorcycle_motorcycle" depart="267.01" departLane="best" from="-174445854#1" to="-325058318#2"/>
    <trip id="motorcycle94" type="motorcycle_motorcycle" depart="269.88" departLane="best" from="325260095" to="-754144919#1"/>
    <trip id="motorcycle95" type="motorcycle_motorcycle" depart="272.75" departLane="best" from="324568240" to="709075089"/>
    <trip id="motorcycle96" type="motorcycle_motorcycle" depart="275.62" departLane="best" from="-328968084#3" to="-328968077#6"/>
    <trip id="motorcycle97" type="motorcycle_motorcycle" depart="278.49" departLane="best" from="197029390#3" to="174445810#1"/>
    <trip id="motorcycle98" type="motorcycle_motorcycle" depart="281.37" departLane="best" from="426143698#1" to="174445809#0"/>
    <trip id="motorcycle99" type="motorcycle_motorcycle" depart="284.24" departLane="best" from="29472969#3" to="324822008#0"/>
    <trip id="motorcycle100" type="motorcycle_motorcycle" depart="287.11" departLane="best" from="-249138244#3" to="328967711#0"/>
    <trip id="motorcycle101" type="motorcycle_motorcycle" depart="289.98" departLane="best" departSpeed="max" from="-709064442" to="572721306#2"/>
    <trip id="motorcycle102" type="motorcycle_motorcycle" depart="292.85" departLane="best" from="127260286#2" to="701916400#6"/>
    <trip id="motorcycle103" type="motorcycle_motorcycle" depart="295.72" departLane="best" from="174445803#2" to="324825115"/>
    <trip id="motorcycle104" type="motorcycle_motorcycle" depart="298.59" departLane="best" from="286442277" to="590293719#0"/>
    <trip id="motorcycle105" type="motorcycle_motorcycle" depart="301.46" departLane="best" from="174445933#0" to="-127262269#1"/>
    <trip id="motorcycle106" type="motorcycle_motorcycle" depart="304.33" departLane="best" from="-325055454#4" to="174445918#1"/>
    <trip id="motorcycle107" type="motorcycle_motorcycle" depart="307.21" departLane="best" from="-222788336#1" to="-255128210#1"/>
    <trip id="motorcycle108" type="motorcycle_motorcycle" depart="310.08" departLane="best" from="-174445775#2" to="324566701#1"/>
    <trip id="motorcycle109" type="motorcycle_motorcycle" depart="312.95" departLane="best" from="453764980#0" to="-174445854#4"/>
    <trip id="motorcycle110" type="motorcycle_motorcycle" depart="315.82" departLane="best" from="751508147" to="216870245#2"/>
    <trip id="motorcycle111" type="motorcycle_motorcycle" depart="318.69" departLane="best" from="695915942#11" to="174445776"/>
    <trip id="motorcycle112" type="motorcycle_motorcycle" depart="321.56" departLane="best" from="-778766859#1" to="572721306#1"/>
    <trip id="motorcycle113" type="motorcycle_motorcycle" depart="324.43" departLane="best" from="-222780952#2" to="222780953#0"/>
    <trip id="motorcycle114" type="motorcycle_motorcycle" depart="327.30" departLane="best" from="-324601643#1" to="701916400#4"/>
    <trip id="motorcycle115" type="motorcycle_motorcycle" depart="330.17" departLane="best" from="249138240#0" to="249138240#2"/>
    <trip id="motorcycle116" type="motorcycle_motorcycle" depart="333.05" departLane="best" from="29472970#8" to="174445680#5"/>
    <trip id="motorcycle117" type="motorcycle_motorcycle" depart="335.92" departLane="best" from="255550492#3" to="695860516"/>
    <trip id="motorcycle118" type="motorcycle_motorcycle" depart="338.79" departLane="best" from="249138221#3" to="695891486#3"/>
    <trip id="motorcycle119" type="motorcycle_motorcycle" depart="341.66" departLane="best" from="-453764986#3" to="-174445938"/>
    <trip id="motorcycle120" type="motorcycle_motorcycle" depart="344.53" departLane="best" from="255550494#1" to="29472980#7"/>
    <trip id="motorcycle121" type="motorcycle_motorcycle" depart="347.40" departLane="best" from="174445827#2" to="-174445755"/>
    <trip id="motorcycle122" type="motorcycle_motorcycle" depart="350.27" departLane="best" from="-174445827#1" to="709073439"/>
    <trip id="motorcycle123" type="motorcycle_motorcycle" depart="353.14" departLane="best" from="249138241#0" to="-328968084#4"/>
    <trip id="motorcycle124" type="motorcycle_motorcycle" depart="356.01" departLane="best" from="-127260999#3" to="-324822099"/>
    <trip id="motorcycle125" type="motorcycle_motorcycle" depart="358.89" departLane="best" from="-174445717#1" to="249138223#1"/>
    <trip id="motorcycle126" type="motorcycle_motorcycle" depart="361.76" departLane="best" from="222779482#0" to="244112746#1"/>
    <trip id="motorcycle127" type="motorcycle_motorcycle" depart="364.63" departLane="best" from="-709073440" to="-701916403#1"/>
    <trip id="motorcycle128" type="motorcycle_motorcycle" depart="367.50" departLane="best" from="249138240#1" to="488931619#1"/>
    <trip id="motorcycle129" type="motorcycle_motorcycle" depart="370.37" departLane="best" from="-453764986#2" to="701916398"/>
    <trip id="motorcycle130" type="motorcycle_motorcycle" depart="373.24" departLane="best" from="129539593#8" to="-695796380#1"/>
    <trip id="motorcycle131" type="motorcycle_motorcycle" depart="376.11" departLane="best" departSpeed="max" from="-695851448#1" to="709267253#1"/>
    <trip id="motorcycle132" type="motorcycle_motorcycle" depart="378.98" departLane="best" from="778446122" to="249138240#0"/>
    <trip id="motorcycle133" type="motorcycle_motorcycle" depart="381.85" departLane="best" from="129539554#0" to="29472980#3"/>
    <trip id="motorcycle134" type="motorcycle_motorcycle" depart="384.72" departLane="best" from="-174445912#2" to="709495809"/>
    <trip id="motorcycle135" type="motorcycle_motorcycle" depart="387.60" departLane="best" from="174445682#1" to="-174445902#6"/>
    <trip id="motorcycle136" type="motorcycle_motorcycle" depart="390.47" departLane="best" from="695851450#0" to="174445882#0"/>
    <trip id="motorcycle137" type="motorcycle_motorcycle" depart="393.34" departLane="best" from="556490926#1" to="530332321#2"/>
    <trip id="motorcycle138" type="motorcycle_motorcycle" depart="396.21" departLane="best" from="-385066018#0" to="327297918#2"/>
    <trip id="motorcycle139" type="motorcycle_motorcycle" depart="399.08" departLane="best" from="-453764980#0" to="488931619#0"/>
    <trip id="motorcycle140" type="motorcycle_motorcycle" depart="401.95" departLane="best" from="216870245#1" to="967678853"/>
    <trip id="motorcycle141" type="motorcycle_motorcycle" depart="404.82" departLane="best" from="197029390#5" to="-754144549"/>
    <trip id="motorcycle142" type="motorcycle_motorcycle" depart="407.69" departLane="best" from="-129539593#10" to="695860519#0"/>
    <trip id="motorcycle143" type="motorcycle_motorcycle" depart="410.56" departLane="best" from="217182211" to="-324567301#0"/>
    <trip id="motorcycle144" type="motorcycle_motorcycle" depart="413.44" departLane="best" from="324604844#1" to="29473042#1"/>
    <trip id="motorcycle145" type="motorcycle_motorcycle" depart="416.31" departLane="best" from="249138222#1" to="382593814#3"/>
    <trip id="motorcycle146" type="motorcycle_motorcycle" depart="419.18" departLane="best" from="754154749#1" to="174445850#7"/>
    <trip id="motorcycle147" type="motorcycle_motorcycle" depart="422.05" departLane="best" from="-127260778#2" to="-174445869#2"/>
    <trip id="motorcycle148" type="motorcycle_motorcycle" depart="424.92" departLane="best" from="324563335#3" to="-127260999#2"/>
    <trip id="motorcycle149" type="motorcycle_motorcycle" depart="427.79" departLane="best" from="704084689#0" to="29472970#4"/>
    <trip id="motorcycle150" type="motorcycle_motorcycle" depart="430.66" departLane="best" from="-174445680#2" to="-223141042#1"/>
    <trip id="motorcycle151" type="motorcycle_motorcycle" depart="433.53" departLane="best" from="324607019" to="129539561#3"/>
    <trip id="motorcycle152" type="motorcycle_motorcycle" depart="436.40" departLane="best" from="29472953#3" to="673672240"/>
    <trip id="motorcycle153" type="motorcycle_motorcycle" depart="439.28" departLane="best" from="-127262253#8" to="327300742"/>
    <trip id="motorcycle154" type="motorcycle_motorcycle" depart="442.15" departLane="best" from="-488880173" to="127260286#2"/>
    <trip id="motorcycle155" type="motorcycle_motorcycle" depart="445.02" departLane="best" from="217182198#6" to="-327300398"/>
    <trip id="motorcycle156" type="motorcycle_motorcycle" depart="447.89" departLane="best" from="544809079#1" to="222782005"/>
    <trip id="motorcycle157" type="motorcycle_motorcycle" depart="450.76" departLane="best" from="-325055557#3" to="325056058#1"/>
    <trip id="motorcycle158" type="motorcycle_motorcycle" depart="453.63" departLane="best" from="127260286#0" to="328967929#3"/>
    <trip id="motorcycle159" type="motorcycle_motorcycle" depart="456.50" departLane="best" from="222779468#0" to="129539579#3"/>
    <trip id="motorcycle160" type="motorcycle_motorcycle" depart="459.37" departLane="best" from="249138221#2" to="127260292#5"/>
    <trip id="motorcycle161" type="motorcycle_motorcycle" depart="462.24" departLane="best" from="174445769" to="324568820#2"/>
    <trip id="motorcycle162" type="motorcycle_motorcycle" depart="465.12" departLane="best" from="217182211" to="222779478#0"/>
    <trip id="motorcycle163" type="motorcycle_motorcycle" depart="467.99" departLane="best" from="255550491#2" to="324818804#1"/>
    <trip id="motorcycle164" type="motorcycle_motorcycle" depart="470.86" departLane="best" departSpeed="max" from="-127262258#7" to="-222780950#2"/>
    <trip id="motorcycle165" type="motorcycle_motorcycle" depart="473.73" departLane="best" from="174445837" to="677321833#1"/>
    <trip id="motorcycle166" type="motorcycle_motorcycle" depart="476.60" departLane="best" from="-222788372#2" to="222788298"/>
    <trip id="motorcycle167" type="motorcycle_motorcycle" depart="479.47" departLane="best" from="222781995#0" to="673672240"/>
    <trip id="motorcycle168" type="motorcycle_motorcycle" depart="482.34" departLane="best" from="129539561#1" to="222779488#1"/>
    <trip id="motorcycle169" type="motorcycle_motorcycle" depart="485.21" departLane="best" from="197029390#7" to="709291784"/>
    <trip id="motorcycle170" type="motorcycle_motorcycle" depart="488.08" departLane="best" from="1086438230" to="327297918#4"/>
    <trip id="motorcycle171" type="motorcycle_motorcycle" depart="490.95" departLane="best" from="129539593#7" to="255550489#0"/>
    <trip id="motorcycle172" type="motorcycle_motorcycle" depart="493.83" departLane="best" from="-174445874#5" to="-324567301#0"/>
    <trip id="motorcycle173" type="motorcycle_motorcycle" depart="496.70" departLane="best" departSpeed="max" from="216865702" to="-695797809#1"/>
    <trip id="motorcycle174" type="motorcycle_motorcycle" depart="499.57" departLane="best" from="-488931619#1" to="127260778#6"/>
    <trip id="motorcycle175" type="motorcycle_motorcycle" depart="502.44" departLane="best" from="197032691#1" to="-701916400#0"/>
    <trip id="motorcycle176" type="motorcycle_motorcycle" depart="505.31" departLane="best" from="-197029396#5" to="-174445680#3"/>
    <trip id="motorcycle177" type="motorcycle_motorcycle" depart="508.18" departLane="best" from="127260778#3" to="174445854#0"/>
    <trip id="motorcycle178" type="motorcycle_motorcycle" depart="511.05" departLane="best" from="174445803#4" to="127260778#6"/>
    <trip id="motorcycle179" type="motorcycle_motorcycle" depart="513.92" departLane="best" from="701916400#4" to="127260773#5"/>
    <trip id="motorcycle180" type="motorcycle_motorcycle" depart="516.79" departLane="best" from="701916400#1" to="488931612"/>
    <trip id="motorcycle181" type="motorcycle_motorcycle" depart="519.67" departLane="best" from="-222788381" to="174445918#5"/>
    <trip id="motorcycle182" type="motorcycle_motorcycle" depart="522.54" departLane="best" from="453764994#1" to="174445682#0"/>
    <trip id="motorcycle183" type="motorcycle_motorcycle" depart="525.41" departLane="best" from="324607253" to="-324821989#0"/>
    <trip id="motorcycle184" type="motorcycle_motorcycle" depart="528.28" departLane="best" from="-174445933#2" to="217182317"/>
    <trip id="motorcycle185" type="motorcycle_motorcycle" depart="531.15" departLane="best" departSpeed="max" from="-249138234#4" to="255128210#0"/>
    <trip id="motorcycle186" type="motorcycle_motorcycle" depart="534.02" departLane="best" from="222780950#3" to="-127262264#8"/>
    <trip id="motorcycle187" type="motorcycle_motorcycle" depart="536.89" departLane="best" from="324604845" to="-174445768"/>
    <trip id="motorcycle188" type="motorcycle_motorcycle" depart="539.76" departLane="best" from="174445899#2" to="-174445685#0"/>
    <trip id="motorcycle189" type="motorcycle_motorcycle" depart="542.63" departLane="best" from="-174445741" to="-127260773#7"/>
    <trip id="motorcycle190" type="motorcycle_motorcycle" depart="545.51" departLane="best" from="677321833#5" to="174445685#6"/>
    <trip id="motorcycle191" type="motorcycle_motorcycle" depart="548.38" departLane="best" from="-695860519#1" to="914015590"/>
    <trip id="motorcycle192" type="motorcycle_motorcycle" depart="551.25" departLane="best" from="127260778#7" to="-174445850#1"/>
    <trip id="motorcycle193" type="motorcycle_motorcycle" depart="554.12" departLane="best" from="426144064#1" to="-174445844#2"/>
    <trip id="motorcycle194" type="motorcycle_motorcycle" depart="556.99" departLane="best" from="222779483#2" to="217182208#2"/>
    <trip id="motorcycle195" type="motorcycle_motorcycle" depart="559.86" departLane="best" departSpeed="max" from="-695890686" to="174445918#5"/>
    <trip id="motorcycle197" type="motorcycle_motorcycle" depart="565.60" departLane="best" from="-174445874#4" to="488880156#1"/>
    <trip id="motorcycle198" type="motorcycle_motorcycle" depart="568.47" departLane="best" from="114212671#2" to="325053202#1"/>
    <trip id="motorcycle199" type="motorcycle_motorcycle" depart="571.34" departLane="best" from="361457789#3" to="222781991#1"/>
    <trip id="motorcycle200" type="motorcycle_motorcycle" depart="574.22" departLane="best" from="223141043#3" to="-127260768#2"/>
    <trip id="motorcycle201" type="motorcycle_motorcycle" depart="577.09" departLane="best" from="544799376#0" to="222779450#5"/>
    <trip id="motorcycle202" type="motorcycle_motorcycle" depart="579.96" departLane="best" from="127262252#3" to="-709291787#1"/>
    <trip id="motorcycle203" type="motorcycle_motorcycle" depart="582.83" departLane="best" from="255132342#0" to="174445827#2"/>
    <trip id="motorcycle204" type="motorcycle_motorcycle" depart="585.70" departLane="best" from="-325056056#1" to="-701916396"/>
    <trip id="motorcycle205" type="motorcycle_motorcycle" depart="588.57" departLane="best" from="-426144067#1" to="328968057#2"/>
    <trip id="motorcycle206" type="motorcycle_motorcycle" depart="591.44" departLane="best" departSpeed="max" from="695851449" to="-521674645"/>
    <trip id="motorcycle207" type="motorcycle_motorcycle" depart="594.31" departLane="best" from="222779450#4" to="222779468#1"/>
    <trip id="motorcycle208" type="motorcycle_motorcycle" depart="597.18" departLane="best" from="29472981#0" to="127262258#2"/>
    <trip id="motorcycle209" type="motorcycle_motorcycle" depart="600.06" departLane="best" from="222780950#2" to="-428031546#0"/>
    <trip id="motorcycle210" type="motorcycle_motorcycle" depart="602.93" departLane="best" from="453764986#0" to="-324821988"/>
    <trip id="motorcycle211" type="motorcycle_motorcycle" depart="605.80" departLane="best" from="222779488#0" to="-174445933#2"/>
    <trip id="motorcycle212" type="motorcycle_motorcycle" depart="608.67" departLane="best" departSpeed="max" from="-709064440" to="701916403#0"/>
    <trip id="motorcycle213" type="motorcycle_motorcycle" depart="611.54" departLane="best" from="-174445892#0" to="174445882#5"/>