<?xml version="1.0" encoding="UTF-8"?>

<!-- generated on 2023-10-18 11:25:29.838752 by osmWebWizard.py v1_18_0+0000-03ecfdea036
<configuration>
    <net-file value="C:\Users\ldvic\Sumo\2023-10-18-11-24-58\osm.net.xml.gz"/>
    <additional-files value="C:\Users\ldvic\Sumo\2023-10-18-11-24-58\osm_stops.add.xml,C:\Users\ldvic\Sumo\2023-10-18-11-24-58\osm_pt.rou.xml"/>
    <output-trip-file value="C:\Users\ldvic\Sumo\2023-10-18-11-24-58\osm.pedestrian.trips.xml"/>
    <route-file value="C:\Users\ldvic\Sumo\2023-10-18-11-24-58\osm.pedestrian.rou.xml"/>
    <persontrips value="True"/>
    <persontrip.walk-opposite-factor value="0.8"/>
    <prefix value="ped"/>
    <trip-attributes value="modes=&quot;public&quot;"/>
    <vehicle-class value="pedestrian"/>
    <fringe-factor value="1"/>
    <insertion-density value="10.0"/>
</configuration>
-->

<routes xmlns:xsi="http://www.w3.org/2001/XMLSchema-instance" xsi:noNamespaceSchemaLocation="http://sumo.dlr.de/xsd/routes_file.xsd">
    <vType id="ped_pedestrian" vClass="pedestrian"/>
    <person id="ped0" depart="0.00" type="ped_pedestrian">
        <personTrip from="669249477#6" to="-129539577#0" modes="public"/>
    </person>
    <person id="ped1" depart="22.27" type="ped_pedestrian">
        <personTrip from="324565633#0" to="1180484439" modes="public"/>
    </person>
    <person id="ped2" depart="44.55" type="ped_pedestrian">
        <personTrip from="718024061" to="673672242" modes="public"/>
    </person>
    <person id="ped3" depart="66.82" type="ped_pedestrian">
        <personTrip from="718024111" to="-488931607#0" modes="public"/>
    </person>
    <person id="ped4" depart="89.09" type="ped_pedestrian">
        <personTrip from="488931609" to="-131896327#0" modes="public"/>
    </person>
    <person id="ped5" depart="111.37" type="ped_pedestrian">
        <personTrip from="1180484438" to="558317864" modes="public"/>
    </person>
    <person id="ped6" depart="133.64" type="ped_pedestrian">
        <personTrip from="-129539577#1" to="-778458571#4" modes="public"/>
    </person>
    <person id="ped7" depart="155.91" type="ped_pedestrian">
        <personTrip from="673672235" to="653381604" modes="public"/>
    </person>
    <person id="ped8" depart="178.19" type="ped_pedestrian">
        <personTrip from="1180484439" to="653381612#1" modes="public"/>
    </person>
    <person id="ped9" depart="200.46" type="ped_pedestrian">
        <personTrip from="718024086" to="-1180484176" modes="public"/>
    </person>
    <person id="ped10" depart="222.73" type="ped_pedestrian">
        <personTrip from="718024084" to="673672245#0" modes="public"/>
    </person>
    <person id="ped11" depart="245.01" type="ped_pedestrian">
        <personTrip from="461682110#0" to="-701472605" modes="public"/>
    </person>
    <person id="ped12" depart="267.28" type="ped_pedestrian">
        <personTrip from="778198178" to="401314429#2" modes="public"/>
    </person>
    <person id="ped13" depart="289.56" type="ped_pedestrian">
        <personTrip from="-488931607#2" to="-488931610" modes="public"/>
    </person>
    <person id="ped14" depart="311.83" type="ped_pedestrian">
        <personTrip from="718024097" to="665457842" modes="public"/>
    </person>
    <person id="ped15" depart="334.10" type="ped_pedestrian">
        <personTrip from="718024085" to="701476629" modes="public"/>
    </person>
    <person id="ped16" depart="356.38" type="ped_pedestrian">
        <personTrip from="558317868#8" to="778458571#0" modes="public"/>
    </person>
    <person id="ped17" depart="378.65" type="ped_pedestrian">
        <personTrip from="461682117#0" to="653381605#1" modes="public"/>
    </person>
    <person id="ped18" depart="400.92" type="ped_pedestrian">
        <personTrip from="718024092" to="665457854" modes="public"/>
    </person>
    <person id="ped19" depart="423.20" type="ped_pedestrian">
        <personTrip from="718024102" to="653381611#1" modes="public"/>
    </person>
    <person id="ped20" depart="445.47" type="ped_pedestrian">
        <personTrip from="673672246#0" to="-131896327#5" modes="public"/>
    </person>
    <person id="ped21" depart="467.74" type="ped_pedestrian">
        <personTrip from="1180484840" to="324821607#1" modes="public"/>
    </person>
    <person id="ped22" depart="490.02" type="ped_pedestrian">
        <personTrip from="-488880158#1" to="1180485184" modes="public"/>
    </person>
    <person id="ped23" depart="512.29" type="ped_pedestrian">
        <personTrip from="-488931615" to="324565633#1" modes="public"/>
    </person>
    <person id="ped24" depart="534.56" type="ped_pedestrian">
        <personTrip from="669249477#5" to="461682113#1" modes="public"/>
    </person>
    <person id="ped25" depart="556.84" type="ped_pedestrian">
        <personTrip from="461682114#1" to="1144973532" modes="public"/>
    </person>
    <person id="ped26" depart="579.11" type="ped_pedestrian">
        <personTrip from="131896327#9" to="718024165" modes="public"/>
    </person>
    <person id="ped27" depart="601.38" type="ped_pedestrian">
        <personTrip from="673672235" to="665457848" modes="public"/>
    </person>
    <person id="ped28" depart="623.66" type="ped_pedestrian">
        <personTrip from="-753429181" to="701476629" modes="public"/>
    </person>
    <person id="ped29" depart="645.93" type="ped_pedestrian">
        <personTrip from="-709068123" to="461682117#1" modes="public"/>
    </person>
    <person id="ped30" depart="668.20" type="ped_pedestrian">
        <personTrip from="821153180" to="669249477#6" modes="public"/>
    </person>
    <person id="ped31" depart="690.48" type="ped_pedestrian">
        <personTrip from="653381606#1" to="673672244#1" modes="public"/>
    </person>
    <person id="ped32" depart="712.75" type="ped_pedestrian">
        <personTrip from="718024096" to="718024075" modes="public"/>
    </person>
    <person id="ped33" depart="735.03" type="ped_pedestrian">
        <personTrip from="1180484840" to="-131896327#0" modes="public"/>
    </person>
    <person id="ped34" depart="757.30" type="ped_pedestrian">
        <personTrip from="324822477#2" to="131896327#9" modes="public"/>
    </person>
    <person id="ped35" depart="779.57" type="ped_pedestrian">
        <personTrip from="1144973533" to="726912900#0" modes="public"/>
    </person>
    <person id="ped36" depart="801.85" type="ped_pedestrian">
        <personTrip from="718024106" to="324822477#2" modes="public"/>
    </person>
    <person id="ped37" depart="824.12" type="ped_pedestrian">
        <personTrip from="673672237" to="461682122" modes="public"/>
    </person>
    <person id="ped38" depart="846.39" type="ped_pedestrian">
        <personTrip from="718024118" to="545376519" modes="public"/>
    </person>
    <person id="ped39" depart="868.67" type="ped_pedestrian">
        <personTrip from="131896327#8" to="131896327#3" modes="public"/>
    </person>
    <person id="ped40" depart="890.94" type="ped_pedestrian">
        <personTrip from="653381607#0" to="131896327#8" modes="public"/>
    </person>
    <person id="ped41" depart="913.21" type="ped_pedestrian">
        <personTrip from="653381611#3" to="718024113" modes="public"/>
    </person>
    <person id="ped42" depart="935.49" type="ped_pedestrian">
        <personTrip from="488880158#0" to="1180484438" modes="public"/>
    </person>
    <person id="ped43" depart="957.76" type="ped_pedestrian">
        <personTrip from="914015592" to="558317867#1" modes="public"/>
    </person>
    <person id="ped44" depart="980.03" type="ped_pedestrian">
        <personTrip from="-488931607#2" to="-131896327#5" modes="public"/>
    </person>
    <person id="ped45" depart="1002.31" type="ped_pedestrian">
        <personTrip from="-488931623" to="669249477#1" modes="public"/>
    </person>
    <person id="ped46" depart="1024.58" type="ped_pedestrian">
        <personTrip from="718024080" to="488931609" modes="public"/>
    </person>
    <person id="ped47" depart="1046.85" type="ped_pedestrian">
        <personTrip from="-324565633#0" to="461682117#1" modes="public"/>
    </person>
    <person id="ped48" depart="1069.13" type="ped_pedestrian">
        <personTrip from="914015586" to="558317868#6" modes="public"/>
    </person>
    <person id="ped49" depart="1091.40" type="ped_pedestrian">
        <personTrip from="778458571#0" to="718024101" modes="public"/>
    </person>
    <person id="ped50" depart="1113.67" type="ped_pedestrian">
        <personTrip from="-1180484438" to="696086940" modes="public"/>
    </person>
    <person id="ped51" depart="1135.95" type="ped_pedestrian">
        <personTrip from="673672243" to="558317868#8" modes="public"/>
    </person>
    <person id="ped52" depart="1158.22" type="ped_pedestrian">
        <personTrip from="131896327#9" to="669249477#7" modes="public"/>
    </person>
    <person id="ped53" depart="1180.50" type="ped_pedestrian">
        <personTrip from="-537779864" to="488931622" modes="public"/>
    </person>
    <person id="ped54" depart="1202.77" type="ped_pedestrian">
        <personTrip from="537779882#1" to="753429181" modes="public"/>
    </person>
    <person id="ped55" depart="1225.04" type="ped_pedestrian">
        <personTrip from="718024106" to="131896327#8" modes="public"/>
    </person>
    <person id="ped56" depart="1247.32" type="ped_pedestrian">
        <personTrip from="558317861#1" to="-778458569" modes="public"/>
    </person>
    <person id="ped57" depart="1269.59" type="ped_pedestrian">
        <personTrip from="718024118" to="718024104" modes="public"/>
    </person>
    <person id="ped58" depart="1291.86" type="ped_pedestrian">
        <personTrip from="324821987" to="669249477#6" modes="public"/>
    </person>
    <person id="ped59" depart="1314.14" type="ped_pedestrian">
        <personTrip from="665457848" to="-669249477#7" modes="public"/>
    </person>
    <person id="ped60" depart="1336.41" type="ped_pedestrian">
        <personTrip from="718024071" to="586645022#0" modes="public"/>
    </person>
    <person id="ped61" depart="1358.68" type="ped_pedestrian">
        <personTrip from="718024076" to="558317868#6" modes="public"/>
    </person>
    <person id="ped62" depart="1380.96" type="ped_pedestrian">
        <personTrip from="-1144973532" to="401314426#1" modes="public"/>
    </person>
    <person id="ped63" depart="1403.23" type="ped_pedestrian">
        <personTrip from="-1180485184" to="718024164#0" modes="public"/>
    </person>
    <person id="ped64" depart="1425.50" type="ped_pedestrian">
        <personTrip from="718024107" to="718024092" modes="public"/>
    </person>
    <person id="ped65" depart="1447.78" type="ped_pedestrian">
        <personTrip from="324822477#0" to="-131896327#8" modes="public"/>
    </person>
    <person id="ped66" depart="1470.05" type="ped_pedestrian">
        <personTrip from="718024107" to="726912900#1" modes="public"/>
    </person>
    <person id="ped67" depart="1492.32" type="ped_pedestrian">
        <personTrip from="-488931607#0" to="545496524" modes="public"/>
    </person>
    <person id="ped68" depart="1514.60" type="ped_pedestrian">
        <personTrip from="-324566417" to="718024071" modes="public"/>
    </person>
    <person id="ped69" depart="1536.87" type="ped_pedestrian">
        <personTrip from="718024072" to="-656372045#1" modes="public"/>
    </person>
    <person id="ped70" depart="1559.14" type="ped_pedestrian">
        <personTrip from="545496519#2" to="653381605#0" modes="public"/>
    </person>
    <person id="ped71" depart="1581.42" type="ped_pedestrian">
        <personTrip from="131896327#8" to="718024105" modes="public"/>
    </person>
    <person id="ped72" depart="1603.69" type="ped_pedestrian">
        <personTrip from="488931609" to="1144973533" modes="public"/>
    </person>
    <person id="ped73" depart="1625.96" type="ped_pedestrian">
        <personTrip from="586645022#0" to="701476629" modes="public"/>
    </person>
    <person id="ped74" depart="1648.24" type="ped_pedestrian">
        <personTrip from="-914015586" to="324822477#1" modes="public"/>
    </person>
    <person id="ped75" depart="1670.51" type="ped_pedestrian">
        <personTrip from="914015586" to="673672235" modes="public"/>
    </person>
    <person id="ped76" depart="1692.79" type="ped_pedestrian">
        <personTrip from="488931623" to="558317868#2" modes="public"/>
    </person>
    <person id="ped77" depart="1715.06" type="ped_pedestrian">
        <personTrip from="-656372044#1" to="1180484440" modes="public"/>
    </person>
    <person id="ped78" depart="1737.33" type="ped_pedestrian">
        <personTrip from="401314429#2" to="653381612#0" modes="public"/>
    </person>
    <person id="ped79" depart="1759.61" type="ped_pedestrian">
        <personTrip from="1180485184" to="1180484439" modes="public"/>
    </person>
    <person id="ped80" depart="1781.88" type="ped_pedestrian">
        <personTrip from="-324566417" to="669249477#4" modes="public"/>
    </person>
    <person id="ped81" depart="1804.15" type="ped_pedestrian">
        <personTrip from="1180484840" to="718024115" modes="public"/>
    </person>
    <person id="ped82" depart="1826.43" type="ped_pedestrian">
        <personTrip from="718024101" to="-324566417" modes="public"/>
    </person>
    <person id="ped83" depart="1848.70" type="ped_pedestrian">
        <personTrip from="129539577#1" to="673672241#2" modes="public"/>
    </person>
    <person id="ped84" depart="1870.97" type="ped_pedestrian">
        <personTrip from="1180484176" to="-665457854" modes="public"/>
    </person>
    <person id="ped85" depart="1893.25" type="ped_pedestrian">
        <personTrip from="718024165" to="653381609" modes="public"/>
    </person>
    <person id="ped86" depart="1915.52" type="ped_pedestrian">
        <personTrip from="545496519#2" to="718024078" modes="public"/>
    </person>
    <person id="ped87" depart="1937.79" type="ped_pedestrian">
        <personTrip from="718024085" to="-778458571#1" modes="public"/>
    </person>
    <person id="ped88" depart="1960.07" type="ped_pedestrian">
        <personTrip from="-488931610" to="488931615" modes="public"/>
    </person>
    <person id="ped89" depart="1982.34" type="ped_pedestrian">
        <personTrip from="488931609" to="545496517#0" modes="public"/>
    </person>
    <person id="ped90" depart="2004.61" type="ped_pedestrian">
        <personTrip from="701476629" to="673672241#4" modes="public"/>
    </person>
    <person id="ped91" depart="2026.89" type="ped_pedestrian">
        <personTrip from="778458571#4" to="-488931613" modes="public"/>
    </person>
    <person id="ped92" depart="2049.16" type="ped_pedestrian">
        <personTrip from="488880158#1" to="401314429#2" modes="public"/>
    </person>
    <person id="ped93" depart="2071.43" type="ped_pedestrian">
        <personTrip from="718024102" to="131896327#3" modes="public"/>
    </person>
    <person id="ped94" depart="2093.71" type="ped_pedestrian">
        <personTrip from="-778458571#1" to="537779864" modes="public"/>
    </person>
    <person id="ped95" depart="2115.98" type="ped_pedestrian">
        <personTrip from="488931609" to="324566417" modes="public"/>
    </person>
    <person id="ped96" depart="2138.26" type="ped_pedestrian">
        <personTrip from="131896327#4" to="718024121" modes="public"/>
    </person>
    <person id="ped97" depart="2160.53" type="ped_pedestrian">
        <personTrip from="521674646" to="718024102" modes="public"/>
    </person>
    <person id="ped98" depart="2182.80" type="ped_pedestrian">
        <personTrip from="653381605#1" to="-131896327#6" modes="public"/>
    </person>
    <person id="ped99" depart="2205.08" type="ped_pedestrian">
        <personTrip from="914015592" to="718024094" modes="public"/>
    </person>
    <person id="ped100" depart="2227.35" type="ped_pedestrian">
        <personTrip from="778458570" to="718024122" modes="public"/>
    </person>
    <person id="ped101" depart="2249.62" type="ped_pedestrian">
        <personTrip from="718024098" to="-718024165" modes="public"/>
    </person>
    <person id="ped102" depart="2271.90" type="ped_pedestrian">
        <personTrip from="545496524" to="1180484176" modes="public"/>
    </person>
    <person id="ped103" depart="2294.17" type="ped_pedestrian">
        <personTrip from="488880158#0" to="-222779514" modes="public"/>
    </person>
    <person id="ped104" depart="2316.44" type="ped_pedestrian">
        <personTrip from="461682117#1" to="778458571#4" modes="public"/>
    </person>
    <person id="ped105" depart="2338.72" type="ped_pedestrian">
        <personTrip from="131896327#8" to="718024078" modes="public"/>
    </person>
    <person id="ped106" depart="2360.99" type="ped_pedestrian">
        <personTrip from="537779882#1" to="488931609" modes="public"/>
    </person>
    <person id="ped107" depart="2383.26" type="ped_pedestrian">
        <personTrip from="778198178" to="914015586" modes="public"/>
    </person>
    <person id="ped108" depart="2405.54" type="ped_pedestrian">
        <personTrip from="653381606#0" to="696086939" modes="public"/>
    </person>
    <person id="ped109" depart="2427.81" type="ped_pedestrian">
        <personTrip from="-669249477#7" to="324821827#1" modes="public"/>
    </person>
    <person id="ped110" depart="2450.08" type="ped_pedestrian">
        <personTrip from="778458570" to="653381611#1" modes="public"/>
    </person>
    <person id="ped111" depart="2472.36" type="ped_pedestrian">
        <personTrip from="618675337" to="718024067" modes="public"/>
    </person>
    <person id="ped112" depart="2494.63" type="ped_pedestrian">
        <personTrip from="-131896327#8" to="653381611#3" modes="public"/>
    </person>
    <person id="ped113" depart="2516.90" type="ped_pedestrian">
        <personTrip from="558317862" to="718024099" modes="public"/>
    </person>
    <person id="ped114" depart="2539.18" type="ped_pedestrian">
        <personTrip from="-701472605" to="778457409" modes="public"/>
    </person>
    <person id="ped115" depart="2561.45" type="ped_pedestrian">
        <personTrip from="-488880158#1" to="-778458571#0" modes="public"/>
    </person>
    <person id="ped116" depart="2583.73" type="ped_pedestrian">
        <personTrip from="656372044#1" to="673672241#4" modes="public"/>
    </person>
    <person id="ped117" depart="2606.00" type="ped_pedestrian">
        <personTrip from="129539577#0" to="-656372044#1" modes="public"/>
    </person>
    <person id="ped118" depart="2628.27" type="ped_pedestrian">
        <personTrip from="718024111" to="131896327#3" modes="public"/>
    </person>
    <person id="ped119" depart="2650.55" type="ped_pedestrian">
        <personTrip from="656372044#1" to="665457854" modes="public"/>
    </person>
    <person id="ped120" depart="2672.82" type="ped_pedestrian">
        <personTrip from="488931607#2" to="653381611#3" modes="public"/>
    </person>
    <person id="ped121" depart="2695.09" type="ped_pedestrian">
        <personTrip from="558317868#4" to="718024164#1" modes="public"/>
    </person>
    <person id="ped122" depart="2717.37" type="ped_pedestrian">
        <personTrip from="-914015592" to="696086939" modes="public"/>
    </person>
    <person id="ped123" depart="2739.64" type="ped_pedestrian">
        <personTrip from="129539577#1" to="461682122" modes="public"/>
    </person>
    <person id="ped124" depart="2761.91" type="ped_pedestrian">
        <personTrip from="673672241#3" to="324821987" modes="public"/>
    </person>
    <person id="ped125" depart="2784.19" type="ped_pedestrian">
        <personTrip from="324822477#2" to="718024068" modes="public"/>
    </person>
    <person id="ped126" depart="2806.46" type="ped_pedestrian">
        <personTrip from="-324822650" to="545376519" modes="public"/>
    </person>
    <person id="ped127" depart="2828.73" type="ped_pedestrian">
        <personTrip from="914015592" to="914015586" modes="public"/>
    </person>
    <person id="ped128" depart="2851.01" type="ped_pedestrian">
        <personTrip from="-324822650" to="1144973533" modes="public"/>
    </person>
    <person id="ped129" depart="2873.28" type="ped_pedestrian">
        <personTrip from="131896327#8" to="718024164#1" modes="public"/>
    </person>
    <person id="ped130" depart="2895.55" type="ped_pedestrian">
        <personTrip from="718024108" to="718024107" modes="public"/>
    </person>
    <person id="ped131" depart="2917.83" type="ped_pedestrian">
        <personTrip from="461682114#1" to="-701472605" modes="public"/>
    </person>
    <person id="ped132" depart="2940.10" type="ped_pedestrian">
        <personTrip from="718024093" to="673672246#0" modes="public"/>
    </person>
    <person id="ped133" depart="2962.37" type="ped_pedestrian">
        <personTrip from="665457851" to="821153180" modes="public"/>
    </person>
    <person id="ped134" depart="2984.65" type="ped_pedestrian">
        <personTrip from="673672237" to="-1180484176" modes="public"/>
    </person>
    <person id="ped135" depart="3006.92" type="ped_pedestrian">
        <personTrip from="718024088" to="324821987" modes="public"/>
    </person>
    <person id="ped136" depart="3029.19" type="ped_pedestrian">
        <personTrip from="673672239" to="726912898" modes="public"/>
    </person>
    <person id="ped137" depart="3051.47" type="ped_pedestrian">
        <personTrip from="-665457856" to="-545515189" modes="public"/>
    </person>
    <person id="ped138" depart="3073.74" type="ped_pedestrian">
        <personTrip from="-488931623" to="653381605#1" modes="public"/>
    </person>
    <person id="ped139" depart="3096.02" type="ped_pedestrian">
        <personTrip from="324565633#0" to="665457842" modes="public"/>
    </person>
    <person id="ped140" depart="3118.29" type="ped_pedestrian">
        <personTrip from="696086939" to="-914015586" modes="public"/>
    </person>
    <person id="ped141" depart="3140.56" type="ped_pedestrian">
        <personTrip from="669249477#4" to="131896327#8" modes="public"/>
    </person>
    <person id="ped142" depart="3162.84" type="ped_pedestrian">
        <personTrip from="545496524" to="718024115" modes="public"/>
    </person>
    <person id="ped143" depart="3185.11" type="ped_pedestrian">
        <personTrip from="718024097" to="-488931607#2" modes="public"/>
    </person>
    <person id="ped144" depart="3207.38" type="ped_pedestrian">
        <personTrip from="488931609" to="324565633#1" modes="public"/>
    </person>
    <person id="ped145" depart="3229.66" type="ped_pedestrian">
        <personTrip from="-1144973533" to="718024074" modes="public"/>
    </person>
    <person id="ped146" depart="3251.93" type="ped_pedestrian">
        <personTrip from="669249477#5" to="131896327#7" modes="public"/>
    </person>
    <person id="ped147" depart="3274.20" type="ped_pedestrian">
        <personTrip from="718024063" to="653381605#1" modes="public"/>
    </person>
    <person id="ped148" depart="3296.48" type="ped_pedestrian">
        <personTrip from="488931613" to="-1180484176" modes="public"/>
    </person>
    <person id="ped149" depart="3318.75" type="ped_pedestrian">
        <personTrip from="-488880158#0" to="718024108" modes="public"/>
    </person>
    <person id="ped150" depart="3341.02" type="ped_pedestrian">
        <personTrip from="718024115" to="653381604" modes="public"/>
    </person>
    <person id="ped151" depart="3363.30" type="ped_pedestrian">
        <personTrip from="718024093" to="653381611#2" modes="public"/>
    </person>
    <person id="ped152" depart="3385.57" type="ped_pedestrian">
        <personTrip from="-669249477#5" to="-656372045#1" modes="public"/>
    </person>
    <person id="ped153" depart="3407.84" type="ped_pedestrian">
        <personTrip from="324822477#0" to="718024113" modes="public"/>
    </person>
    <person id="ped154" depart="3430.12" type="ped_pedestrian">
        <personTrip from="718024082" to="718024101" modes="public"/>
    </person>
    <person id="ped155" depart="3452.39" type="ped_pedestrian">
        <personTrip from="718024113" to="1144973532" modes="public"/>
    </person>
    <person id="ped156" depart="3474.66" type="ped_pedestrian">
        <personTrip from="131896327#4" to="-488931615" modes="public"/>
    </person>
    <person id="ped157" depart="3496.94" type="ped_pedestrian">
        <personTrip from="718024077" to="718024109" modes="public"/>
    </person>
    <person id="ped158" depart="3519.21" type="ped_pedestrian">
        <personTrip from="488880165" to="665457854" modes="public"/>
    </person>
    <person id="ped159" depart="3541.49" type="ped_pedestrian">
        <personTrip from="-669249477#7" to="718024164#0" modes="public"/>
    </person>
    <person id="ped160" depart="3563.76" type="ped_pedestrian">
        <personTrip from="718024103" to="778458571#1" modes="public"/>
    </person>
    <person id="ped161" depart="3586.03" type="ped_pedestrian">
        <personTrip from="718024086" to="718024108" modes="public"/>
    </person>
</routes>
