<?xml version="1.0" encoding="UTF-8"?>

<!-- generated on 2023-10-18 11:25:04 by Eclipse SUMO netconvert Version 1.18.0
<configuration xmlns:xsi="http://www.w3.org/2001/XMLSchema-instance" xsi:noNamespaceSchemaLocation="http://sumo.dlr.de/xsd/netconvertConfiguration.xsd">

    <input>
        <type-files value="${SUMO_HOME}/data/typemap/osmNetconvert.typ.xml,${SUMO_HOME}/data/typemap/osmNetconvertUrbanDe.typ.xml,${SUMO_HOME}/data/typemap/osmNetconvertPedestrians.typ.xml,${SUMO_HOME}/data/typemap/osmNetconvertBicycle.typ.xml,${SUMO_HOME}/data/typemap/osmNetconvertAerialway.typ.xml"/>
        <osm-files value="osm_bbox.osm.xml.gz"/>
    </input>

    <output>
        <output-file value="osm.net.xml.gz"/>
        <output.street-names value="true"/>
        <output.original-names value="true"/>
        <ptstop-output value="osm_stops.add.xml"/>
        <ptline-output value="osm_ptlines.xml"/>
    </output>

    <projection>
        <proj.utm value="true"/>
    </projection>

    <processing>
        <geometry.remove value="true"/>
        <roundabouts.guess value="true"/>
    </processing>

    <tls_building>
        <tls.discard-simple value="true"/>
        <tls.join value="true"/>
        <tls.guess-signals value="true"/>
        <tls.default-type value="actuated"/>
    </tls_building>

    <ramp_guessing>
        <ramps.guess value="true"/>
    </ramp_guessing>

    <junctions>
        <junctions.join value="true"/>
        <junctions.corner-detail value="5"/>
    </junctions>

    <pedestrian>
        <crossings.guess value="true"/>
    </pedestrian>

    <railway>
        <railway.topology.repair value="true"/>
    </railway>

    <formats>
        <osm.bike-access value="true"/>
        <osm.sidewalks value="true"/>
    </formats>

</configuration>
-->

<additional xmlns:xsi="http://www.w3.org/2001/XMLSchema-instance" xsi:noNamespaceSchemaLocation="http://sumo.dlr.de/xsd/additional_file.xsd">
    <busStop id="6593670748" name="05" lane="401314426#1_0" startPos="21.34" endPos="36.34" friendlyPos="true"/>
    <busStop id="6593670749" name="04" lane="401314426#1_0" startPos="3.54" endPos="18.54" friendlyPos="true"/>
    <busStop id="6593670750" name="03" lane="401314426#0_0" startPos="56.09" endPos="71.09" friendlyPos="true"/>
    <busStop id="6593670751" name="02" lane="401314426#0_0" startPos="36.61" endPos="51.61" friendlyPos="true"/>
    <busStop id="6593670752" name="01" lane="401314426#0_0" startPos="18.85" endPos="33.85" friendlyPos="true"/>
    <busStop id="6593670753" name="06" lane="401314429#2_0" startPos="37.57" endPos="52.57" friendlyPos="true"/>
    <busStop id="6593670754" name="05" lane="401314429#2_0" startPos="19.62" endPos="34.62" friendlyPos="true"/>
    <busStop id="6593670755" name="04" lane="401314429#2_0" startPos="0.00" endPos="15.00" friendlyPos="true"/>
    <busStop id="6593670756" name="03" lane="401314429#1_0" startPos="27.26" endPos="42.26" friendlyPos="true"/>
    <busStop id="6593670757" name="02" lane="401314429#1_0" startPos="9.65" endPos="24.65" friendlyPos="true"/>
    <busStop id="6593670758" name="01" lane="401314429#1_0" startPos="0.00" endPos="15.00" friendlyPos="true"/>
    <busStop id="6593670759" name="06" lane="401314426#1_0" startPos="35.65" endPos="50.65" friendlyPos="true"/>
</additional>
